/*---------------------------------------------------------------------------*\
| =========                 |                                                 |
| \\      /  F ield         | OpenFOAM: The Open Source CFD Toolbox           |
|  \\    /   O peration     | Version:  4.1                                   |
|   \\  /    A nd           | Web:      www.OpenFOAM.org                      |
|    \\/     M anipulation  |                                                 |
\*---------------------------------------------------------------------------*/
Build  : 4.1
Exec   : /home/di/OpenFOAM/di-4.1/platforms/linux64GccDPInt32Opt/bin/AeroFoam
Date   : Jul 03 2017
Time   : 22:30:05
Host   : "ubuntu"
PID    : 24395
Case   : /home/di/OpenFOAM/di-4.1/solvers/AeroFoamV1-2008/tutorials/ObliqueShock_AeroFoam/ObliqueShock_D
nProcs : 1
sigFpe : Enabling floating point exception trapping (FOAM_SIGFPE).
fileModificationChecking : Monitoring run-time modified files using timeStampMaster
allowSystemOperations : Allowing user-supplied system call operations

// * * * * * * * * * * * * * * * * * * * * * * * * * * * * * * * * * * * * * //
Create time

Create mesh for time = 0

// using new solver syntax:
cellDisplacement
{
    solver          PCG;
    preconditioner  DIC;
    tolerance       1e-08;
    relTol          0;
}

========================================
 Reading Thermodynamic Properties...
========================================
 gamma  [-] = 1.4
 Pr     [-] = 0.72
 R  [J/KgK] = 287.05
 Cp [J/KgK] = 717.625
 Cv [J/KgK] = 1004.67
----------------------------------------

========================================
 Reading Initial Conditions...
========================================
 Reading field p
 Reading field T
 Reading field U
----------------------------------------
 Creating conservative variables at t^(k)
 Creating conservative variables at t^(k-1)
 Creating conservative variables at t^(k-2)
 Creating conservative variables fluxes at t^(k)
 Creating primitive variables gradient fields (optional)
----------------------------------------

========================================
 Creating Mesh Connectivity...
========================================
Using adaptive algorithm...
Loop on Internal Faces...
 10 % 
 20 % 
 30 % 
 40 % 
 50 % 
 60 % 
 70 % 
 80 % 
 90 % 
----------------------------------------
Loop on Boundary Faces...
----------------------------------------

========================================
 Mesh 
========================================
 # of Faces    =  50800
 # of Cells    =  25600
 # of BndPatch =  5
 0) supersonicInlet @ inlet
 1) extrapolatedOutlet @ outlet
 2) symmetryPlane @ bottom
 3) supersonicInlet @ top
 4) empty @ defaultFaces
----------------------------------------

========================================
 Numerical Scheme 
========================================
 flowType      =  Euler
 timeScheme    =  RK2
 CourantMax    =  0
 CourantSteps  =  25
 MonotoneFlux  =  Roe
 HighResFlux   =  LW
 fluxLimiter   =  VL
 entropyFix    =  HH2
 extrapolateBC =  1
 residualNorm  =  L1
 minResidual   =  -1
----------------------------------------
 Does everything look fine? [y] to continue [n] otherwise 
 Starting time loop...

========================================
 Iteration # 0 @ LESSOPEN=| /usr/bin/lesspipe %s
========================================
TimeStep      [s] = 5e-06
CourantNumber [-] = 2.09179
RunTime       [s] = 5e-06
IterationTime [s] = 0.3
ExecutionTime [h] = 0
RemainingTime [h] = 0
----------------------------------------
ContinuityEq  [-] = 0.00152419
MomentumEq    [-] = 0.0015557
EnergyEq      [-] = 0.00170258
----------------------------------------

========================================
 Iteration # 1 @ LESSOPEN=| /usr/bin/lesspipe %s
========================================
TimeStep      [s] = 5e-06
CourantNumber [-] = 2.09549
RunTime       [s] = 1e-05
IterationTime [s] = 0.09
ExecutionTime [h] = 0.000277778
RemainingTime [h] = 0.555267
----------------------------------------
ContinuityEq  [-] = 0.0014067
MomentumEq    [-] = 0.00144829
EnergyEq      [-] = 0.0015584
----------------------------------------

========================================
 Iteration # 2 @ LESSOPEN=| /usr/bin/lesspipe %s
========================================
TimeStep      [s] = 5e-06
CourantNumber [-] = 2.10086
RunTime       [s] = 1.5e-05
IterationTime [s] = 0.05
ExecutionTime [h] = 0.000277778
RemainingTime [h] = 0.370085
----------------------------------------
ContinuityEq  [-] = 0.00134393
MomentumEq    [-] = 0.00138982
EnergyEq      [-] = 0.00148446
----------------------------------------

========================================
 Iteration # 3 @ LESSOPEN=| /usr/bin/lesspipe %s
========================================
TimeStep      [s] = 5e-06
CourantNumber [-] = 2.10702
RunTime       [s] = 2e-05
IterationTime [s] = 0.05
ExecutionTime [h] = 0.000277778
RemainingTime [h] = 0.277494
----------------------------------------
ContinuityEq  [-] = 0.00130293
MomentumEq    [-] = 0.00135043
EnergyEq      [-] = 0.00143664
----------------------------------------

========================================
 Iteration # 4 @ LESSOPEN=| /usr/bin/lesspipe %s
========================================
TimeStep      [s] = 5e-06
CourantNumber [-] = 2.11318
RunTime       [s] = 2.5e-05
IterationTime [s] = 0.05
ExecutionTime [h] = 0.000277778
RemainingTime [h] = 0.22194
----------------------------------------
ContinuityEq  [-] = 0.0012727
MomentumEq    [-] = 0.00132061
EnergyEq      [-] = 0.00140085
----------------------------------------

========================================
 Iteration # 5 @ LESSOPEN=| /usr/bin/lesspipe %s
========================================
TimeStep      [s] = 5e-06
CourantNumber [-] = 2.11875
RunTime       [s] = 3e-05
IterationTime [s] = 0.05
ExecutionTime [h] = 0.000277778
RemainingTime [h] = 0.184904
----------------------------------------
ContinuityEq  [-] = 0.00125087
MomentumEq    [-] = 0.00129881
EnergyEq      [-] = 0.00137481
----------------------------------------

========================================
 Iteration # 6 @ LESSOPEN=| /usr/bin/lesspipe %s
========================================
TimeStep      [s] = 5e-06
CourantNumber [-] = 2.12337
RunTime       [s] = 3.5e-05
IterationTime [s] = 0.05
ExecutionTime [h] = 0.000277778
RemainingTime [h] = 0.158449
----------------------------------------
ContinuityEq  [-] = 0.00123609
MomentumEq    [-] = 0.00128408
EnergyEq      [-] = 0.00135739
----------------------------------------

========================================
 Iteration # 7 @ LESSOPEN=| /usr/bin/lesspipe %s
========================================
TimeStep      [s] = 5e-06
CourantNumber [-] = 2.12683
RunTime       [s] = 4e-05
IterationTime [s] = 0.05
ExecutionTime [h] = 0.000277778
RemainingTime [h] = 0.138608
----------------------------------------
ContinuityEq  [-] = 0.00122597
MomentumEq    [-] = 0.00127395
EnergyEq      [-] = 0.00134568
----------------------------------------

========================================
 Iteration # 8 @ LESSOPEN=| /usr/bin/lesspipe %s
========================================
TimeStep      [s] = 5e-06
CourantNumber [-] = 2.12907
RunTime       [s] = 4.5e-05
IterationTime [s] = 0.05
ExecutionTime [h] = 0.000277778
RemainingTime [h] = 0.123177
----------------------------------------
ContinuityEq  [-] = 0.00121824
MomentumEq    [-] = 0.00126618
EnergyEq      [-] = 0.00133663
----------------------------------------

========================================
 Iteration # 9 @ LESSOPEN=| /usr/bin/lesspipe %s
========================================
TimeStep      [s] = 5e-06
CourantNumber [-] = 2.13014
RunTime       [s] = 5e-05
IterationTime [s] = 0.05
ExecutionTime [h] = 0.000277778
RemainingTime [h] = 0.110831
----------------------------------------
ContinuityEq  [-] = 0.00121175
MomentumEq    [-] = 0.00125959
EnergyEq      [-] = 0.00132877
----------------------------------------

========================================
 Iteration # 10 @ LESSOPEN=| /usr/bin/lesspipe %s
========================================
TimeStep      [s] = 5e-06
CourantNumber [-] = 2.13011
RunTime       [s] = 5.5e-05
IterationTime [s] = 0.05
ExecutionTime [h] = 0.000277778
RemainingTime [h] = 0.10073
----------------------------------------
ContinuityEq  [-] = 0.0012065
MomentumEq    [-] = 0.00125416
EnergyEq      [-] = 0.00132216
----------------------------------------

========================================
 Iteration # 11 @ LESSOPEN=| /usr/bin/lesspipe %s
========================================
TimeStep      [s] = 5e-06
CourantNumber [-] = 2.13132
RunTime       [s] = 6e-05
IterationTime [s] = 0.05
ExecutionTime [h] = 0.000277778
RemainingTime [h] = 0.092313
----------------------------------------
ContinuityEq  [-] = 0.0012027
MomentumEq    [-] = 0.00125016
EnergyEq      [-] = 0.00131718
----------------------------------------

========================================
 Iteration # 12 @ LESSOPEN=| /usr/bin/lesspipe %s
========================================
TimeStep      [s] = 5e-06
CourantNumber [-] = 2.1369
RunTime       [s] = 6.5e-05
IterationTime [s] = 0.05
ExecutionTime [h] = 0.000277778
RemainingTime [h] = 0.0851906
----------------------------------------
ContinuityEq  [-] = 0.00119994
MomentumEq    [-] = 0.00124728
EnergyEq      [-] = 0.0013134
----------------------------------------

========================================
 Iteration # 13 @ LESSOPEN=| /usr/bin/lesspipe %s
========================================
TimeStep      [s] = 5e-06
CourantNumber [-] = 2.14166
RunTime       [s] = 7e-05
IterationTime [s] = 0.05
ExecutionTime [h] = 0.000277778
RemainingTime [h] = 0.0790857
----------------------------------------
ContinuityEq  [-] = 0.00119756
MomentumEq    [-] = 0.00124496
EnergyEq      [-] = 0.00131
----------------------------------------

========================================
 Iteration # 14 @ LESSOPEN=| /usr/bin/lesspipe %s
========================================
TimeStep      [s] = 5e-06
CourantNumber [-] = 2.14549
RunTime       [s] = 7.5e-05
IterationTime [s] = 0.05
ExecutionTime [h] = 0.000277778
RemainingTime [h] = 0.0737948
----------------------------------------
ContinuityEq  [-] = 0.00119516
MomentumEq    [-] = 0.00124277
EnergyEq      [-] = 0.00130656
----------------------------------------

========================================
 Iteration # 15 @ LESSOPEN=| /usr/bin/lesspipe %s
========================================
TimeStep      [s] = 5e-06
CourantNumber [-] = 2.14833
RunTime       [s] = 8e-05
IterationTime [s] = 0.05
ExecutionTime [h] = 0.000277778
RemainingTime [h] = 0.0691653
----------------------------------------
ContinuityEq  [-] = 0.00119291
MomentumEq    [-] = 0.00124092
EnergyEq      [-] = 0.00130334
----------------------------------------

========================================
 Iteration # 16 @ LESSOPEN=| /usr/bin/lesspipe %s
========================================
TimeStep      [s] = 5e-06
CourantNumber [-] = 2.15021
RunTime       [s] = 8.5e-05
IterationTime [s] = 0.05
ExecutionTime [h] = 0.000277778
RemainingTime [h] = 0.0650804
----------------------------------------
ContinuityEq  [-] = 0.001191
MomentumEq    [-] = 0.00123965
EnergyEq      [-] = 0.00130072
----------------------------------------

========================================
 Iteration # 17 @ LESSOPEN=| /usr/bin/lesspipe %s
========================================
TimeStep      [s] = 5e-06
CourantNumber [-] = 2.15116
RunTime       [s] = 9e-05
IterationTime [s] = 0.05
ExecutionTime [h] = 0.000277778
RemainingTime [h] = 0.0614494
----------------------------------------
ContinuityEq  [-] = 0.0011893
MomentumEq    [-] = 0.0012389
EnergyEq      [-] = 0.00129861
----------------------------------------

========================================
 Iteration # 18 @ LESSOPEN=| /usr/bin/lesspipe %s
========================================
TimeStep      [s] = 5e-06
CourantNumber [-] = 2.15125
RunTime       [s] = 9.5e-05
IterationTime [s] = 0.05
ExecutionTime [h] = 0.000277778
RemainingTime [h] = 0.0582006
----------------------------------------
ContinuityEq  [-] = 0.00118788
MomentumEq    [-] = 0.00123879
EnergyEq      [-] = 0.00129664
----------------------------------------

========================================
 Iteration # 19 @ LESSOPEN=| /usr/bin/lesspipe %s
========================================
TimeStep      [s] = 5e-06
CourantNumber [-] = 2.15057
RunTime       [s] = 0.0001
IterationTime [s] = 0.05
ExecutionTime [h] = 0.000277778
RemainingTime [h] = 0.0552767
----------------------------------------
ContinuityEq  [-] = 0.0011866
MomentumEq    [-] = 0.00123949
EnergyEq      [-] = 0.00129681
----------------------------------------

========================================
 Iteration # 20 @ LESSOPEN=| /usr/bin/lesspipe %s
========================================
TimeStep      [s] = 5e-06
CourantNumber [-] = 2.15314
RunTime       [s] = 0.000105
IterationTime [s] = 0.05
ExecutionTime [h] = 0.000555556
RemainingTime [h] = 0.105262
----------------------------------------
ContinuityEq  [-] = 0.00118533
MomentumEq    [-] = 0.00124094
EnergyEq      [-] = 0.00130954
----------------------------------------

========================================
 Iteration # 21 @ LESSOPEN=| /usr/bin/lesspipe %s
========================================
TimeStep      [s] = 5e-06
CourantNumber [-] = 2.15668
RunTime       [s] = 0.00011
IterationTime [s] = 0.05
ExecutionTime [h] = 0.000555556
RemainingTime [h] = 0.100453
----------------------------------------
ContinuityEq  [-] = 0.00118408
MomentumEq    [-] = 0.00124304
EnergyEq      [-] = 0.00132013
----------------------------------------

========================================
 Iteration # 22 @ LESSOPEN=| /usr/bin/lesspipe %s
========================================
TimeStep      [s] = 5e-06
CourantNumber [-] = 2.15947
RunTime       [s] = 0.000115
IterationTime [s] = 0.06
ExecutionTime [h] = 0.000555556
RemainingTime [h] = 0.0960609
----------------------------------------
ContinuityEq  [-] = 0.0011829
MomentumEq    [-] = 0.00124565
EnergyEq      [-] = 0.0013273
----------------------------------------

========================================
 Iteration # 23 @ LESSOPEN=| /usr/bin/lesspipe %s
========================================
TimeStep      [s] = 5e-06
CourantNumber [-] = 2.16153
RunTime       [s] = 0.00012
IterationTime [s] = 0.05
ExecutionTime [h] = 0.000555556
RemainingTime [h] = 0.0920352
----------------------------------------
ContinuityEq  [-] = 0.00118168
MomentumEq    [-] = 0.00124875
EnergyEq      [-] = 0.00133149
----------------------------------------

========================================
 Iteration # 24 @ LESSOPEN=| /usr/bin/lesspipe %s
========================================
TimeStep      [s] = 5e-06
CourantNumber [-] = 2.1629
RunTime       [s] = 0.000125
IterationTime [s] = 0.05
ExecutionTime [h] = 0.000555556
RemainingTime [h] = 0.0883316
----------------------------------------
ContinuityEq  [-] = 0.00118029
MomentumEq    [-] = 0.00125281
EnergyEq      [-] = 0.00133329
----------------------------------------

========================================
 Iteration # 25 @ LESSOPEN=| /usr/bin/lesspipe %s
========================================
TimeStep      [s] = 5e-06
CourantNumber [-] = 2.16364
RunTime       [s] = 0.00013
IterationTime [s] = 0.05
ExecutionTime [h] = 0.000555556
RemainingTime [h] = 0.0849128
----------------------------------------
ContinuityEq  [-] = 0.00117883
MomentumEq    [-] = 0.00125838
EnergyEq      [-] = 0.00134607
----------------------------------------

========================================
 Iteration # 26 @ LESSOPEN=| /usr/bin/lesspipe %s
========================================
TimeStep      [s] = 5e-06
CourantNumber [-] = 2.1638
RunTime       [s] = 0.000135
IterationTime [s] = 0.05
ExecutionTime [h] = 0.000555556
RemainingTime [h] = 0.0817473
----------------------------------------
ContinuityEq  [-] = 0.00117757
MomentumEq    [-] = 0.00126494
EnergyEq      [-] = 0.00136132
----------------------------------------

========================================
 Iteration # 27 @ LESSOPEN=| /usr/bin/lesspipe %s
========================================
TimeStep      [s] = 5e-06
CourantNumber [-] = 2.16343
RunTime       [s] = 0.00014
IterationTime [s] = 0.05
ExecutionTime [h] = 0.000555556
RemainingTime [h] = 0.0788079
----------------------------------------
ContinuityEq  [-] = 0.00117652
MomentumEq    [-] = 0.00127101
EnergyEq      [-] = 0.00137167
----------------------------------------

========================================
 Iteration # 28 @ LESSOPEN=| /usr/bin/lesspipe %s
========================================
TimeStep      [s] = 5e-06
CourantNumber [-] = 2.1637
RunTime       [s] = 0.000145
IterationTime [s] = 0.06
ExecutionTime [h] = 0.000555556
RemainingTime [h] = 0.0760713
----------------------------------------
ContinuityEq  [-] = 0.00117542
MomentumEq    [-] = 0.0012756
EnergyEq      [-] = 0.00137828
----------------------------------------

========================================
 Iteration # 29 @ LESSOPEN=| /usr/bin/lesspipe %s
========================================
TimeStep      [s] = 5e-06
CourantNumber [-] = 2.16607
RunTime       [s] = 0.00015
IterationTime [s] = 0.04
ExecutionTime [h] = 0.000555556
RemainingTime [h] = 0.073517
----------------------------------------
ContinuityEq  [-] = 0.00117418
MomentumEq    [-] = 0.00127863
EnergyEq      [-] = 0.00138167
----------------------------------------

========================================
 Iteration # 30 @ LESSOPEN=| /usr/bin/lesspipe %s
========================================
TimeStep      [s] = 5e-06
CourantNumber [-] = 2.16791
RunTime       [s] = 0.000155
IterationTime [s] = 0.06
ExecutionTime [h] = 0.000555556
RemainingTime [h] = 0.0711276
----------------------------------------
ContinuityEq  [-] = 0.00117283
MomentumEq    [-] = 0.00128085
EnergyEq      [-] = 0.00138237
----------------------------------------

========================================
 Iteration # 31 @ LESSOPEN=| /usr/bin/lesspipe %s
========================================
TimeStep      [s] = 5e-06
CourantNumber [-] = 2.16926
RunTime       [s] = 0.00016
IterationTime [s] = 0.05
ExecutionTime [h] = 0.000555556
RemainingTime [h] = 0.0688875
----------------------------------------
ContinuityEq  [-] = 0.00117147
MomentumEq    [-] = 0.00128384
EnergyEq      [-] = 0.00138114
----------------------------------------

========================================
 Iteration # 32 @ LESSOPEN=| /usr/bin/lesspipe %s
========================================
TimeStep      [s] = 5e-06
CourantNumber [-] = 2.17019
RunTime       [s] = 0.000165
IterationTime [s] = 0.05
ExecutionTime [h] = 0.000555556
RemainingTime [h] = 0.0667832
----------------------------------------
ContinuityEq  [-] = 0.00117025
MomentumEq    [-] = 0.00128899
EnergyEq      [-] = 0.00139143
----------------------------------------

========================================
 Iteration # 33 @ LESSOPEN=| /usr/bin/lesspipe %s
========================================
TimeStep      [s] = 5e-06
CourantNumber [-] = 2.17072
RunTime       [s] = 0.00017
IterationTime [s] = 0.05
ExecutionTime [h] = 0.000555556
RemainingTime [h] = 0.0648026
----------------------------------------
ContinuityEq  [-] = 0.00116913
MomentumEq    [-] = 0.0012949
EnergyEq      [-] = 0.00140243
----------------------------------------

========================================
 Iteration # 34 @ LESSOPEN=| /usr/bin/lesspipe %s
========================================
TimeStep      [s] = 5e-06
CourantNumber [-] = 2.17089
RunTime       [s] = 0.000175
IterationTime [s] = 0.05
ExecutionTime [h] = 0.000555556
RemainingTime [h] = 0.0629352
----------------------------------------
ContinuityEq  [-] = 0.00116794
MomentumEq    [-] = 0.00129968
EnergyEq      [-] = 0.00140971
----------------------------------------

========================================
 Iteration # 35 @ LESSOPEN=| /usr/bin/lesspipe %s
========================================
TimeStep      [s] = 5e-06
CourantNumber [-] = 2.17073
RunTime       [s] = 0.00018
IterationTime [s] = 0.05
ExecutionTime [h] = 0.000555556
RemainingTime [h] = 0.0611716
----------------------------------------
ContinuityEq  [-] = 0.00116662
MomentumEq    [-] = 0.00130269
EnergyEq      [-] = 0.00141405
----------------------------------------

========================================
 Iteration # 36 @ LESSOPEN=| /usr/bin/lesspipe %s
========================================
TimeStep      [s] = 5e-06
CourantNumber [-] = 2.17026
RunTime       [s] = 0.000185
IterationTime [s] = 0.05
ExecutionTime [h] = 0.000555556
RemainingTime [h] = 0.0595033
----------------------------------------
ContinuityEq  [-] = 0.00116521
MomentumEq    [-] = 0.00130414
EnergyEq      [-] = 0.0014159
----------------------------------------

========================================
 Iteration # 37 @ LESSOPEN=| /usr/bin/lesspipe %s
========================================
TimeStep      [s] = 5e-06
CourantNumber [-] = 2.17162
RunTime       [s] = 0.00019
IterationTime [s] = 0.05
ExecutionTime [h] = 0.000555556
RemainingTime [h] = 0.0579228
----------------------------------------
ContinuityEq  [-] = 0.0011638
MomentumEq    [-] = 0.00130464
EnergyEq      [-] = 0.00141582
----------------------------------------

========================================
 Iteration # 38 @ LESSOPEN=| /usr/bin/lesspipe %s
========================================
TimeStep      [s] = 5e-06
CourantNumber [-] = 2.17277
RunTime       [s] = 0.000195
IterationTime [s] = 0.05
ExecutionTime [h] = 0.000555556
RemainingTime [h] = 0.0564234
----------------------------------------
ContinuityEq  [-] = 0.0011625
MomentumEq    [-] = 0.00130516
EnergyEq      [-] = 0.00141413
----------------------------------------

========================================
 Iteration # 39 @ LESSOPEN=| /usr/bin/lesspipe %s
========================================
TimeStep      [s] = 5e-06
CourantNumber [-] = 2.17363
RunTime       [s] = 0.0002
IterationTime [s] = 0.05
ExecutionTime [h] = 0.000555556
RemainingTime [h] = 0.0549989
----------------------------------------
ContinuityEq  [-] = 0.00116114
MomentumEq    [-] = 0.00130728
EnergyEq      [-] = 0.00141485
----------------------------------------

========================================
 Iteration # 40 @ LESSOPEN=| /usr/bin/lesspipe %s
========================================
TimeStep      [s] = 5e-06
CourantNumber [-] = 2.17423
RunTime       [s] = 0.000205
IterationTime [s] = 0.05
ExecutionTime [h] = 0.000833333
RemainingTime [h] = 0.0804659
----------------------------------------
ContinuityEq  [-] = 0.00115973
MomentumEq    [-] = 0.00131088
EnergyEq      [-] = 0.00142263
----------------------------------------

========================================
 Iteration # 41 @ LESSOPEN=| /usr/bin/lesspipe %s
========================================
TimeStep      [s] = 5e-06
CourantNumber [-] = 2.1746
RunTime       [s] = 0.00021
IterationTime [s] = 0.05
ExecutionTime [h] = 0.000833333
RemainingTime [h] = 0.0785302
----------------------------------------
ContinuityEq  [-] = 0.00115831
MomentumEq    [-] = 0.00131413
EnergyEq      [-] = 0.00142795
----------------------------------------

========================================
 Iteration # 42 @ LESSOPEN=| /usr/bin/lesspipe %s
========================================
TimeStep      [s] = 5e-06
CourantNumber [-] = 2.17476
RunTime       [s] = 0.000215
IterationTime [s] = 0.05
ExecutionTime [h] = 0.000833333
RemainingTime [h] = 0.0766845
----------------------------------------
ContinuityEq  [-] = 0.00115691
MomentumEq    [-] = 0.0013163
EnergyEq      [-] = 0.00143121
----------------------------------------

========================================
 Iteration # 43 @ LESSOPEN=| /usr/bin/lesspipe %s
========================================
TimeStep      [s] = 5e-06
CourantNumber [-] = 2.17473
RunTime       [s] = 0.00022
IterationTime [s] = 0.05
ExecutionTime [h] = 0.000833333
RemainingTime [h] = 0.0749227
----------------------------------------
ContinuityEq  [-] = 0.00115711
MomentumEq    [-] = 0.00131732
EnergyEq      [-] = 0.00143273
----------------------------------------

========================================
 Iteration # 44 @ LESSOPEN=| /usr/bin/lesspipe %s
========================================
TimeStep      [s] = 5e-06
CourantNumber [-] = 2.17451
RunTime       [s] = 0.000225
IterationTime [s] = 0.05
ExecutionTime [h] = 0.000833333
RemainingTime [h] = 0.0732393
----------------------------------------
ContinuityEq  [-] = 0.00115817
MomentumEq    [-] = 0.00131734
EnergyEq      [-] = 0.00143273
----------------------------------------

========================================
 Iteration # 45 @ LESSOPEN=| /usr/bin/lesspipe %s
========================================
TimeStep      [s] = 5e-06
CourantNumber [-] = 2.17476
RunTime       [s] = 0.00023
IterationTime [s] = 0.05
ExecutionTime [h] = 0.000833333
RemainingTime [h] = 0.071629
----------------------------------------
ContinuityEq  [-] = 0.00115845
MomentumEq    [-] = 0.00131666
EnergyEq      [-] = 0.00143133
----------------------------------------

========================================
 Iteration # 46 @ LESSOPEN=| /usr/bin/lesspipe %s
========================================
TimeStep      [s] = 5e-06
CourantNumber [-] = 2.17547
RunTime       [s] = 0.000235
IterationTime [s] = 0.05
ExecutionTime [h] = 0.000833333
RemainingTime [h] = 0.0700873
----------------------------------------
ContinuityEq  [-] = 0.00115804
MomentumEq    [-] = 0.00131621
EnergyEq      [-] = 0.00142883
----------------------------------------

========================================
 Iteration # 47 @ LESSOPEN=| /usr/bin/lesspipe %s
========================================
TimeStep      [s] = 5e-06
CourantNumber [-] = 2.176
RunTime       [s] = 0.00024
IterationTime [s] = 0.05
ExecutionTime [h] = 0.000833333
RemainingTime [h] = 0.0686097
----------------------------------------
ContinuityEq  [-] = 0.00115714
MomentumEq    [-] = 0.00131731
EnergyEq      [-] = 0.00143031
----------------------------------------

========================================
 Iteration # 48 @ LESSOPEN=| /usr/bin/lesspipe %s
========================================
TimeStep      [s] = 5e-06
CourantNumber [-] = 2.17638
RunTime       [s] = 0.000245
IterationTime [s] = 0.05
ExecutionTime [h] = 0.000833333
RemainingTime [h] = 0.0671925
----------------------------------------
ContinuityEq  [-] = 0.00115585
MomentumEq    [-] = 0.00131923
EnergyEq      [-] = 0.00143418
----------------------------------------

========================================
 Iteration # 49 @ LESSOPEN=| /usr/bin/lesspipe %s
========================================
TimeStep      [s] = 5e-06
CourantNumber [-] = 2.17664
RunTime       [s] = 0.00025
IterationTime [s] = 0.06
ExecutionTime [h] = 0.000833333
RemainingTime [h] = 0.065832
----------------------------------------
ContinuityEq  [-] = 0.00115484
MomentumEq    [-] = 0.00132069
EnergyEq      [-] = 0.00143658
----------------------------------------

========================================
 Iteration # 50 @ LESSOPEN=| /usr/bin/lesspipe %s
========================================
TimeStep      [s] = 5e-06
CourantNumber [-] = 2.17678
RunTime       [s] = 0.000255
IterationTime [s] = 0.05
ExecutionTime [h] = 0.000833333
RemainingTime [h] = 0.0645249
----------------------------------------
ContinuityEq  [-] = 0.00115621
MomentumEq    [-] = 0.00132127
EnergyEq      [-] = 0.00143764
----------------------------------------

========================================
 Iteration # 51 @ LESSOPEN=| /usr/bin/lesspipe %s
========================================
TimeStep      [s] = 5e-06
CourantNumber [-] = 2.17681
RunTime       [s] = 0.00026
IterationTime [s] = 0.05
ExecutionTime [h] = 0.000833333
RemainingTime [h] = 0.063268
----------------------------------------
ContinuityEq  [-] = 0.00115666
MomentumEq    [-] = 0.00132097
EnergyEq      [-] = 0.00143749
----------------------------------------

========================================
 Iteration # 52 @ LESSOPEN=| /usr/bin/lesspipe %s
========================================
TimeStep      [s] = 5e-06
CourantNumber [-] = 2.17674
RunTime       [s] = 0.000265
IterationTime [s] = 0.05
ExecutionTime [h] = 0.000833333
RemainingTime [h] = 0.0620585
----------------------------------------
ContinuityEq  [-] = 0.00115635
MomentumEq    [-] = 0.00132001
EnergyEq      [-] = 0.00143642
----------------------------------------

========================================
 Iteration # 53 @ LESSOPEN=| /usr/bin/lesspipe %s
========================================
TimeStep      [s] = 5e-06
CourantNumber [-] = 2.17657
RunTime       [s] = 0.00027
IterationTime [s] = 0.05
ExecutionTime [h] = 0.000833333
RemainingTime [h] = 0.0608938
----------------------------------------
ContinuityEq  [-] = 0.00115542
MomentumEq    [-] = 0.00131873
EnergyEq      [-] = 0.00143478
----------------------------------------

========================================
 Iteration # 54 @ LESSOPEN=| /usr/bin/lesspipe %s
========================================
TimeStep      [s] = 5e-06
CourantNumber [-] = 2.17691
RunTime       [s] = 0.000275
IterationTime [s] = 0.05
ExecutionTime [h] = 0.000833333
RemainingTime [h] = 0.0597715
----------------------------------------
ContinuityEq  [-] = 0.00115401
MomentumEq    [-] = 0.00131788
EnergyEq      [-] = 0.00143256
----------------------------------------

========================================
 Iteration # 55 @ LESSOPEN=| /usr/bin/lesspipe %s
========================================
TimeStep      [s] = 5e-06
CourantNumber [-] = 2.17723
RunTime       [s] = 0.00028
IterationTime [s] = 0.05
ExecutionTime [h] = 0.000833333
RemainingTime [h] = 0.0586893
----------------------------------------
ContinuityEq  [-] = 0.00115221
MomentumEq    [-] = 0.00131809
EnergyEq      [-] = 0.00143323
----------------------------------------

========================================
 Iteration # 56 @ LESSOPEN=| /usr/bin/lesspipe %s
========================================
TimeStep      [s] = 5e-06
CourantNumber [-] = 2.17747
RunTime       [s] = 0.000285
IterationTime [s] = 0.05
ExecutionTime [h] = 0.000833333
RemainingTime [h] = 0.057645
----------------------------------------
ContinuityEq  [-] = 0.00115049
MomentumEq    [-] = 0.0013185
EnergyEq      [-] = 0.00143442
----------------------------------------

========================================
 Iteration # 57 @ LESSOPEN=| /usr/bin/lesspipe %s
========================================
TimeStep      [s] = 5e-06
CourantNumber [-] = 2.17763
RunTime       [s] = 0.00029
IterationTime [s] = 0.05
ExecutionTime [h] = 0.000833333
RemainingTime [h] = 0.0566368
----------------------------------------
ContinuityEq  [-] = 0.00115047
MomentumEq    [-] = 0.00131853
EnergyEq      [-] = 0.00143476
----------------------------------------

========================================
 Iteration # 58 @ LESSOPEN=| /usr/bin/lesspipe %s
========================================
TimeStep      [s] = 5e-06
CourantNumber [-] = 2.17774
RunTime       [s] = 0.000295
IterationTime [s] = 0.05
ExecutionTime [h] = 0.000833333
RemainingTime [h] = 0.0556627
----------------------------------------
ContinuityEq  [-] = 0.00115078
MomentumEq    [-] = 0.00131812
EnergyEq      [-] = 0.00143451
----------------------------------------

========================================
 Iteration # 59 @ LESSOPEN=| /usr/bin/lesspipe %s
========================================
TimeStep      [s] = 5e-06
CourantNumber [-] = 2.17779
RunTime       [s] = 0.0003
IterationTime [s] = 0.05
ExecutionTime [h] = 0.000833333
RemainingTime [h] = 0.0547211
----------------------------------------
ContinuityEq  [-] = 0.00115089
MomentumEq    [-] = 0.00131727
EnergyEq      [-] = 0.00143381
----------------------------------------

========================================
 Iteration # 60 @ LESSOPEN=| /usr/bin/lesspipe %s
========================================
TimeStep      [s] = 5e-06
CourantNumber [-] = 2.17778
RunTime       [s] = 0.000305
IterationTime [s] = 0.05
ExecutionTime [h] = 0.00111111
RemainingTime [h] = 0.0717472
----------------------------------------
ContinuityEq  [-] = 0.00115044
MomentumEq    [-] = 0.00131601
EnergyEq      [-] = 0.00143252
----------------------------------------

========================================
 Iteration # 61 @ LESSOPEN=| /usr/bin/lesspipe %s
========================================
TimeStep      [s] = 5e-06
CourantNumber [-] = 2.17772
RunTime       [s] = 0.00031
IterationTime [s] = 0.05
ExecutionTime [h] = 0.00111111
RemainingTime [h] = 0.0705721
----------------------------------------
ContinuityEq  [-] = 0.00114951
MomentumEq    [-] = 0.00131446
EnergyEq      [-] = 0.00143062
----------------------------------------

========================================
 Iteration # 62 @ LESSOPEN=| /usr/bin/lesspipe %s
========================================
TimeStep      [s] = 5e-06
CourantNumber [-] = 2.17769
RunTime       [s] = 0.000315
IterationTime [s] = 0.06
ExecutionTime [h] = 0.00111111
RemainingTime [h] = 0.0694342
----------------------------------------
ContinuityEq  [-] = 0.0011483
MomentumEq    [-] = 0.00131319
EnergyEq      [-] = 0.00142826
----------------------------------------

========================================
 Iteration # 63 @ LESSOPEN=| /usr/bin/lesspipe %s
========================================
TimeStep      [s] = 5e-06
CourantNumber [-] = 2.17788
RunTime       [s] = 0.00032
IterationTime [s] = 0.04
ExecutionTime [h] = 0.00111111
RemainingTime [h] = 0.068332
----------------------------------------
ContinuityEq  [-] = 0.00114685
MomentumEq    [-] = 0.00131272
EnergyEq      [-] = 0.00142778
----------------------------------------

========================================
 Iteration # 64 @ LESSOPEN=| /usr/bin/lesspipe %s
========================================
TimeStep      [s] = 5e-06
CourantNumber [-] = 2.17802
RunTime       [s] = 0.000325
IterationTime [s] = 0.06
ExecutionTime [h] = 0.00111111
RemainingTime [h] = 0.0672636
----------------------------------------
ContinuityEq  [-] = 0.00114655
MomentumEq    [-] = 0.0013124
EnergyEq      [-] = 0.00142783
----------------------------------------

========================================
 Iteration # 65 @ LESSOPEN=| /usr/bin/lesspipe %s
========================================
TimeStep      [s] = 5e-06
CourantNumber [-] = 2.17812
RunTime       [s] = 0.00033
IterationTime [s] = 0.04
ExecutionTime [h] = 0.00111111
RemainingTime [h] = 0.0662276
----------------------------------------
ContinuityEq  [-] = 0.00114613
MomentumEq    [-] = 0.00131187
EnergyEq      [-] = 0.00142752
----------------------------------------

========================================
 Iteration # 66 @ LESSOPEN=| /usr/bin/lesspipe %s
========================================
TimeStep      [s] = 5e-06
CourantNumber [-] = 2.17819
RunTime       [s] = 0.000335
IterationTime [s] = 0.05
ExecutionTime [h] = 0.00111111
RemainingTime [h] = 0.0652226
----------------------------------------
ContinuityEq  [-] = 0.0011452
MomentumEq    [-] = 0.00131097
EnergyEq      [-] = 0.00142668
----------------------------------------

========================================
 Iteration # 67 @ LESSOPEN=| /usr/bin/lesspipe %s
========================================
TimeStep      [s] = 5e-06
CourantNumber [-] = 2.17823
RunTime       [s] = 0.00034
IterationTime [s] = 0.05
ExecutionTime [h] = 0.00111111
RemainingTime [h] = 0.0642471
----------------------------------------
ContinuityEq  [-] = 0.00114395
MomentumEq    [-] = 0.00130974
EnergyEq      [-] = 0.00142541
----------------------------------------

========================================
 Iteration # 68 @ LESSOPEN=| /usr/bin/lesspipe %s
========================================
TimeStep      [s] = 5e-06
CourantNumber [-] = 2.17824
RunTime       [s] = 0.000345
IterationTime [s] = 0.05
ExecutionTime [h] = 0.00111111
RemainingTime [h] = 0.0632999
----------------------------------------
ContinuityEq  [-] = 0.00114243
MomentumEq    [-] = 0.00130827
EnergyEq      [-] = 0.00142377
----------------------------------------

========================================
 Iteration # 69 @ LESSOPEN=| /usr/bin/lesspipe %s
========================================
TimeStep      [s] = 5e-06
CourantNumber [-] = 2.17823
RunTime       [s] = 0.00035
IterationTime [s] = 0.05
ExecutionTime [h] = 0.00111111
RemainingTime [h] = 0.0623797
----------------------------------------
ContinuityEq  [-] = 0.00114069
MomentumEq    [-] = 0.0013067
EnergyEq      [-] = 0.00142194
----------------------------------------

========================================
 Iteration # 70 @ LESSOPEN=| /usr/bin/lesspipe %s
========================================
TimeStep      [s] = 5e-06
CourantNumber [-] = 2.17819
RunTime       [s] = 0.000355
IterationTime [s] = 0.06
ExecutionTime [h] = 0.00111111
RemainingTime [h] = 0.0614855
----------------------------------------
ContinuityEq  [-] = 0.00113879
MomentumEq    [-] = 0.00130537
EnergyEq      [-] = 0.00142006
----------------------------------------

========================================
 Iteration # 71 @ LESSOPEN=| /usr/bin/lesspipe %s
========================================
TimeStep      [s] = 5e-06
CourantNumber [-] = 2.17821
RunTime       [s] = 0.00036
IterationTime [s] = 0.04
ExecutionTime [h] = 0.00111111
RemainingTime [h] = 0.0606161
----------------------------------------
ContinuityEq  [-] = 0.00113776
MomentumEq    [-] = 0.00130449
EnergyEq      [-] = 0.00141912
----------------------------------------

========================================
 Iteration # 72 @ LESSOPEN=| /usr/bin/lesspipe %s
========================================
TimeStep      [s] = 5e-06
CourantNumber [-] = 2.17829
RunTime       [s] = 0.000365
IterationTime [s] = 0.06
ExecutionTime [h] = 0.00111111
RemainingTime [h] = 0.0597705
----------------------------------------
ContinuityEq  [-] = 0.00113746
MomentumEq    [-] = 0.00130361
EnergyEq      [-] = 0.00141833
----------------------------------------

========================================
 Iteration # 73 @ LESSOPEN=| /usr/bin/lesspipe %s
========================================
TimeStep      [s] = 5e-06
CourantNumber [-] = 2.17835
RunTime       [s] = 0.00037
IterationTime [s] = 0.05
ExecutionTime [h] = 0.00111111
RemainingTime [h] = 0.0589478
----------------------------------------
ContinuityEq  [-] = 0.00113695
MomentumEq    [-] = 0.00130258
EnergyEq      [-] = 0.00141726
----------------------------------------

========================================
 Iteration # 74 @ LESSOPEN=| /usr/bin/lesspipe %s
========================================
TimeStep      [s] = 5e-06
CourantNumber [-] = 2.1784
RunTime       [s] = 0.000375
IterationTime [s] = 0.05
ExecutionTime [h] = 0.00111111
RemainingTime [h] = 0.058147
----------------------------------------
ContinuityEq  [-] = 0.0011362
MomentumEq    [-] = 0.0013014
EnergyEq      [-] = 0.00141597
----------------------------------------

========================================
 Iteration # 75 @ LESSOPEN=| /usr/bin/lesspipe %s
========================================
TimeStep      [s] = 5e-06
CourantNumber [-] = 2.17842
RunTime       [s] = 0.00038
IterationTime [s] = 0.05
ExecutionTime [h] = 0.00111111
RemainingTime [h] = 0.0573673
----------------------------------------
ContinuityEq  [-] = 0.0011352
MomentumEq    [-] = 0.00130009
EnergyEq      [-] = 0.00141461
----------------------------------------

========================================
 Iteration # 76 @ LESSOPEN=| /usr/bin/lesspipe %s
========================================
TimeStep      [s] = 5e-06
CourantNumber [-] = 2.17844
RunTime       [s] = 0.000385
IterationTime [s] = 0.05
ExecutionTime [h] = 0.00111111
RemainingTime [h] = 0.0566078
----------------------------------------
ContinuityEq  [-] = 0.00113394
MomentumEq    [-] = 0.00129863
EnergyEq      [-] = 0.00141313
----------------------------------------

========================================
 Iteration # 77 @ LESSOPEN=| /usr/bin/lesspipe %s
========================================
TimeStep      [s] = 5e-06
CourantNumber [-] = 2.17844
RunTime       [s] = 0.00039
IterationTime [s] = 0.05
ExecutionTime [h] = 0.00111111
RemainingTime [h] = 0.0558678
----------------------------------------
ContinuityEq  [-] = 0.00113245
MomentumEq    [-] = 0.00129704
EnergyEq      [-] = 0.00141141
----------------------------------------

========================================
 Iteration # 78 @ LESSOPEN=| /usr/bin/lesspipe %s
========================================
TimeStep      [s] = 5e-06
CourantNumber [-] = 2.17842
RunTime       [s] = 0.000395
IterationTime [s] = 0.05
ExecutionTime [h] = 0.00111111
RemainingTime [h] = 0.0551466
----------------------------------------
ContinuityEq  [-] = 0.00113088
MomentumEq    [-] = 0.00129553
EnergyEq      [-] = 0.00140954
----------------------------------------

========================================
 Iteration # 79 @ LESSOPEN=| /usr/bin/lesspipe %s
========================================
TimeStep      [s] = 5e-06
CourantNumber [-] = 2.1784
RunTime       [s] = 0.0004
IterationTime [s] = 0.05
ExecutionTime [h] = 0.00111111
RemainingTime [h] = 0.0544434
----------------------------------------
ContinuityEq  [-] = 0.00112944
MomentumEq    [-] = 0.00129433
EnergyEq      [-] = 0.00140808
----------------------------------------

========================================
 Iteration # 80 @ LESSOPEN=| /usr/bin/lesspipe %s
========================================
TimeStep      [s] = 5e-06
CourantNumber [-] = 2.17842
RunTime       [s] = 0.000405
IterationTime [s] = 0.05
ExecutionTime [h] = 0.00111111
RemainingTime [h] = 0.0537575
----------------------------------------
ContinuityEq  [-] = 0.00112829
MomentumEq    [-] = 0.0012932
EnergyEq      [-] = 0.0014069
----------------------------------------

========================================
 Iteration # 81 @ LESSOPEN=| /usr/bin/lesspipe %s
========================================
TimeStep      [s] = 5e-06
CourantNumber [-] = 2.17846
RunTime       [s] = 0.00041
IterationTime [s] = 0.05
ExecutionTime [h] = 0.00138889
RemainingTime [h] = 0.0663605
----------------------------------------
ContinuityEq  [-] = 0.00112691
MomentumEq    [-] = 0.00129199
EnergyEq      [-] = 0.00140572
----------------------------------------

========================================
 Iteration # 82 @ LESSOPEN=| /usr/bin/lesspipe %s
========================================
TimeStep      [s] = 5e-06
CourantNumber [-] = 2.17848
RunTime       [s] = 0.000415
IterationTime [s] = 0.05
ExecutionTime [h] = 0.00138889
RemainingTime [h] = 0.0655442
----------------------------------------
ContinuityEq  [-] = 0.00112531
MomentumEq    [-] = 0.00129067
EnergyEq      [-] = 0.00140437
----------------------------------------

========================================
 Iteration # 83 @ LESSOPEN=| /usr/bin/lesspipe %s
========================================
TimeStep      [s] = 5e-06
CourantNumber [-] = 2.1785
RunTime       [s] = 0.00042
IterationTime [s] = 0.05
ExecutionTime [h] = 0.00138889
RemainingTime [h] = 0.0647474
----------------------------------------
ContinuityEq  [-] = 0.00112357
MomentumEq    [-] = 0.00128924
EnergyEq      [-] = 0.00140285
----------------------------------------

========================================
 Iteration # 84 @ LESSOPEN=| /usr/bin/lesspipe %s
========================================
TimeStep      [s] = 5e-06
CourantNumber [-] = 2.17851
RunTime       [s] = 0.000425
IterationTime [s] = 0.06
ExecutionTime [h] = 0.00138889
RemainingTime [h] = 0.0639693
----------------------------------------
ContinuityEq  [-] = 0.00112244
MomentumEq    [-] = 0.00128773
EnergyEq      [-] = 0.00140121
----------------------------------------

========================================
 Iteration # 85 @ LESSOPEN=| /usr/bin/lesspipe %s
========================================
TimeStep      [s] = 5e-06
CourantNumber [-] = 2.17851
RunTime       [s] = 0.00043
IterationTime [s] = 0.04
ExecutionTime [h] = 0.00138889
RemainingTime [h] = 0.0632093
----------------------------------------
ContinuityEq  [-] = 0.00112147
MomentumEq    [-] = 0.00128623
EnergyEq      [-] = 0.00139951
----------------------------------------

========================================
 Iteration # 86 @ LESSOPEN=| /usr/bin/lesspipe %s
========================================
TimeStep      [s] = 5e-06
CourantNumber [-] = 2.17851
RunTime       [s] = 0.000435
IterationTime [s] = 0.06
ExecutionTime [h] = 0.00138889
RemainingTime [h] = 0.0624668
----------------------------------------
ContinuityEq  [-] = 0.00112039
MomentumEq    [-] = 0.00128478
EnergyEq      [-] = 0.00139786
----------------------------------------

========================================
 Iteration # 87 @ LESSOPEN=| /usr/bin/lesspipe %s
========================================
TimeStep      [s] = 5e-06
CourantNumber [-] = 2.1785
RunTime       [s] = 0.00044
IterationTime [s] = 0.05
ExecutionTime [h] = 0.00138889
RemainingTime [h] = 0.0617412
----------------------------------------
ContinuityEq  [-] = 0.00111923
MomentumEq    [-] = 0.00128348
EnergyEq      [-] = 0.00139638
----------------------------------------

========================================
 Iteration # 88 @ LESSOPEN=| /usr/bin/lesspipe %s
========================================
TimeStep      [s] = 5e-06
CourantNumber [-] = 2.17848
RunTime       [s] = 0.000445
IterationTime [s] = 0.05
ExecutionTime [h] = 0.00138889
RemainingTime [h] = 0.0610319
----------------------------------------
ContinuityEq  [-] = 0.00111813
MomentumEq    [-] = 0.0012822
EnergyEq      [-] = 0.00139502
----------------------------------------

========================================
 Iteration # 89 @ LESSOPEN=| /usr/bin/lesspipe %s
========================================
TimeStep      [s] = 5e-06
CourantNumber [-] = 2.1785
RunTime       [s] = 0.00045
IterationTime [s] = 0.05
ExecutionTime [h] = 0.00138889
RemainingTime [h] = 0.0603383
----------------------------------------
ContinuityEq  [-] = 0.00111696
MomentumEq    [-] = 0.00128086
EnergyEq      [-] = 0.00139354
----------------------------------------

========================================
 Iteration # 90 @ LESSOPEN=| /usr/bin/lesspipe %s
========================================
TimeStep      [s] = 5e-06
CourantNumber [-] = 2.17851
RunTime       [s] = 0.000455
IterationTime [s] = 0.05
ExecutionTime [h] = 0.00138889
RemainingTime [h] = 0.05966
----------------------------------------
ContinuityEq  [-] = 0.00111574
MomentumEq    [-] = 0.00127949
EnergyEq      [-] = 0.00139202
----------------------------------------

========================================
 Iteration # 91 @ LESSOPEN=| /usr/bin/lesspipe %s
========================================
TimeStep      [s] = 5e-06
CourantNumber [-] = 2.17852
RunTime       [s] = 0.00046
IterationTime [s] = 0.05
ExecutionTime [h] = 0.00138889
RemainingTime [h] = 0.0589964
----------------------------------------
ContinuityEq  [-] = 0.00111441
MomentumEq    [-] = 0.00127807
EnergyEq      [-] = 0.00139042
----------------------------------------

========================================
 Iteration # 92 @ LESSOPEN=| /usr/bin/lesspipe %s
========================================
TimeStep      [s] = 5e-06
CourantNumber [-] = 2.17853
RunTime       [s] = 0.000465
IterationTime [s] = 0.05
ExecutionTime [h] = 0.00138889
RemainingTime [h] = 0.0583471
----------------------------------------
ContinuityEq  [-] = 0.00111296
MomentumEq    [-] = 0.00127661
EnergyEq      [-] = 0.00138891
----------------------------------------

========================================
 Iteration # 93 @ LESSOPEN=| /usr/bin/lesspipe %s
========================================
TimeStep      [s] = 5e-06
CourantNumber [-] = 2.17853
RunTime       [s] = 0.00047
IterationTime [s] = 0.05
ExecutionTime [h] = 0.00138889
RemainingTime [h] = 0.0577116
----------------------------------------
ContinuityEq  [-] = 0.0011114
MomentumEq    [-] = 0.00127514
EnergyEq      [-] = 0.00138735
----------------------------------------

========================================
 Iteration # 94 @ LESSOPEN=| /usr/bin/lesspipe %s
========================================
TimeStep      [s] = 5e-06
CourantNumber [-] = 2.17853
RunTime       [s] = 0.000475
IterationTime [s] = 0.05
ExecutionTime [h] = 0.00138889
RemainingTime [h] = 0.0570895
----------------------------------------
ContinuityEq  [-] = 0.00110978
MomentumEq    [-] = 0.00127368
EnergyEq      [-] = 0.00138574
----------------------------------------

========================================
 Iteration # 95 @ LESSOPEN=| /usr/bin/lesspipe %s
========================================
TimeStep      [s] = 5e-06
CourantNumber [-] = 2.17852
RunTime       [s] = 0.00048
IterationTime [s] = 0.05
ExecutionTime [h] = 0.00138889
RemainingTime [h] = 0.0564804
----------------------------------------
ContinuityEq  [-] = 0.00110825
MomentumEq    [-] = 0.00127232
EnergyEq      [-] = 0.00138419
----------------------------------------

========================================
 Iteration # 96 @ LESSOPEN=| /usr/bin/lesspipe %s
========================================
TimeStep      [s] = 5e-06
CourantNumber [-] = 2.17852
RunTime       [s] = 0.000485
IterationTime [s] = 0.05
ExecutionTime [h] = 0.00138889
RemainingTime [h] = 0.0558838
----------------------------------------
ContinuityEq  [-] = 0.00110676
MomentumEq    [-] = 0.00127098
EnergyEq      [-] = 0.00138269
----------------------------------------

========================================
 Iteration # 97 @ LESSOPEN=| /usr/bin/lesspipe %s
========================================
TimeStep      [s] = 5e-06
CourantNumber [-] = 2.17851
RunTime       [s] = 0.00049
IterationTime [s] = 0.05
ExecutionTime [h] = 0.00138889
RemainingTime [h] = 0.0552993
----------------------------------------
ContinuityEq  [-] = 0.00110561
MomentumEq    [-] = 0.00126961
EnergyEq      [-] = 0.00138119
----------------------------------------

========================================
 Iteration # 98 @ LESSOPEN=| /usr/bin/lesspipe %s
========================================
TimeStep      [s] = 5e-06
CourantNumber [-] = 2.17851
RunTime       [s] = 0.000495
IterationTime [s] = 0.05
ExecutionTime [h] = 0.00138889
RemainingTime [h] = 0.0547267
----------------------------------------
ContinuityEq  [-] = 0.00110459
MomentumEq    [-] = 0.00126818
EnergyEq      [-] = 0.0013797
----------------------------------------

========================================
 Iteration # 99 @ LESSOPEN=| /usr/bin/lesspipe %s
========================================
TimeStep      [s] = 5e-06
CourantNumber [-] = 2.17852
RunTime       [s] = 0.0005
IterationTime [s] = 0.05
ExecutionTime [h] = 0.00138889
RemainingTime [h] = 0.0541656
----------------------------------------
ContinuityEq  [-] = 0.00110348
MomentumEq    [-] = 0.00126672
EnergyEq      [-] = 0.00137811
----------------------------------------

========================================
 Iteration # 100 @ LESSOPEN=| /usr/bin/lesspipe %s
========================================
TimeStep      [s] = 5e-06
CourantNumber [-] = 2.17852
RunTime       [s] = 0.000505
IterationTime [s] = 0.05
ExecutionTime [h] = 0.00138889
RemainingTime [h] = 0.0536155
----------------------------------------
ContinuityEq  [-] = 0.00110241
MomentumEq    [-] = 0.00126528
EnergyEq      [-] = 0.0013765
----------------------------------------

========================================
 Iteration # 101 @ LESSOPEN=| /usr/bin/lesspipe %s
========================================
TimeStep      [s] = 5e-06
CourantNumber [-] = 2.17852
RunTime       [s] = 0.00051
IterationTime [s] = 0.05
ExecutionTime [h] = 0.00166667
RemainingTime [h] = 0.0636915
----------------------------------------
ContinuityEq  [-] = 0.00110133
MomentumEq    [-] = 0.00126387
EnergyEq      [-] = 0.0013749
----------------------------------------

========================================
 Iteration # 102 @ LESSOPEN=| /usr/bin/lesspipe %s
========================================
TimeStep      [s] = 5e-06
CourantNumber [-] = 2.17852
RunTime       [s] = 0.000515
IterationTime [s] = 0.05
ExecutionTime [h] = 0.00166667
RemainingTime [h] = 0.063057
----------------------------------------
ContinuityEq  [-] = 0.00110017
MomentumEq    [-] = 0.00126246
EnergyEq      [-] = 0.00137327
----------------------------------------

========================================
 Iteration # 103 @ LESSOPEN=| /usr/bin/lesspipe %s
========================================
TimeStep      [s] = 5e-06
CourantNumber [-] = 2.17852
RunTime       [s] = 0.00052
IterationTime [s] = 0.05
ExecutionTime [h] = 0.00166667
RemainingTime [h] = 0.0624346
----------------------------------------
ContinuityEq  [-] = 0.00109892
MomentumEq    [-] = 0.00126108
EnergyEq      [-] = 0.0013718
----------------------------------------

========================================
 Iteration # 104 @ LESSOPEN=| /usr/bin/lesspipe %s
========================================
TimeStep      [s] = 5e-06
CourantNumber [-] = 2.17852
RunTime       [s] = 0.000525
IterationTime [s] = 0.05
ExecutionTime [h] = 0.00166667
RemainingTime [h] = 0.0618242
----------------------------------------
ContinuityEq  [-] = 0.00109757
MomentumEq    [-] = 0.00125968
EnergyEq      [-] = 0.00137032
----------------------------------------

========================================
 Iteration # 105 @ LESSOPEN=| /usr/bin/lesspipe %s
========================================
TimeStep      [s] = 5e-06
CourantNumber [-] = 2.17852
RunTime       [s] = 0.00053
IterationTime [s] = 0.05
ExecutionTime [h] = 0.00166667
RemainingTime [h] = 0.0612252
----------------------------------------
ContinuityEq  [-] = 0.00109616
MomentumEq    [-] = 0.00125826
EnergyEq      [-] = 0.00136878
----------------------------------------

========================================
 Iteration # 106 @ LESSOPEN=| /usr/bin/lesspipe %s
========================================
TimeStep      [s] = 5e-06
CourantNumber [-] = 2.17851
RunTime       [s] = 0.000535
IterationTime [s] = 0.05
ExecutionTime [h] = 0.00166667
RemainingTime [h] = 0.0606374
----------------------------------------
ContinuityEq  [-] = 0.00109477
MomentumEq    [-] = 0.00125683
EnergyEq      [-] = 0.00136721
----------------------------------------

========================================
 Iteration # 107 @ LESSOPEN=| /usr/bin/lesspipe %s
========================================
TimeStep      [s] = 5e-06
CourantNumber [-] = 2.17851
RunTime       [s] = 0.00054
IterationTime [s] = 0.05
ExecutionTime [h] = 0.00166667
RemainingTime [h] = 0.0600605
----------------------------------------
ContinuityEq  [-] = 0.00109339
MomentumEq    [-] = 0.00125542
EnergyEq      [-] = 0.00136557
----------------------------------------

========================================
 Iteration # 108 @ LESSOPEN=| /usr/bin/lesspipe %s
========================================
TimeStep      [s] = 5e-06
CourantNumber [-] = 2.1785
RunTime       [s] = 0.000545
IterationTime [s] = 0.05
ExecutionTime [h] = 0.00166667
RemainingTime [h] = 0.0594942
----------------------------------------
ContinuityEq  [-] = 0.00109194
MomentumEq    [-] = 0.00125401
EnergyEq      [-] = 0.001364
----------------------------------------

========================================
 Iteration # 109 @ LESSOPEN=| /usr/bin/lesspipe %s
========================================
TimeStep      [s] = 5e-06
CourantNumber [-] = 2.17851
RunTime       [s] = 0.00055
IterationTime [s] = 0.05
ExecutionTime [h] = 0.00166667
RemainingTime [h] = 0.0589382
----------------------------------------
ContinuityEq  [-] = 0.00109039
MomentumEq    [-] = 0.00125261
EnergyEq      [-] = 0.00136252
----------------------------------------

========================================
 Iteration # 110 @ LESSOPEN=| /usr/bin/lesspipe %s
========================================
TimeStep      [s] = 5e-06
CourantNumber [-] = 2.17851
RunTime       [s] = 0.000555
IterationTime [s] = 0.05
ExecutionTime [h] = 0.00166667
RemainingTime [h] = 0.0583922
----------------------------------------
ContinuityEq  [-] = 0.00108894
MomentumEq    [-] = 0.00125122
EnergyEq      [-] = 0.00136102
----------------------------------------

========================================
 Iteration # 111 @ LESSOPEN=| /usr/bin/lesspipe %s
========================================
TimeStep      [s] = 5e-06
CourantNumber [-] = 2.17851
RunTime       [s] = 0.00056
IterationTime [s] = 0.06
ExecutionTime [h] = 0.00166667
RemainingTime [h] = 0.057856
----------------------------------------
ContinuityEq  [-] = 0.00108802
MomentumEq    [-] = 0.00124984
EnergyEq      [-] = 0.00135948
----------------------------------------

========================================
 Iteration # 112 @ LESSOPEN=| /usr/bin/lesspipe %s
========================================
TimeStep      [s] = 5e-06
CourantNumber [-] = 2.17851
RunTime       [s] = 0.000565
IterationTime [s] = 0.05
ExecutionTime [h] = 0.00166667
RemainingTime [h] = 0.0573292
----------------------------------------
ContinuityEq  [-] = 0.00108713
MomentumEq    [-] = 0.00124848
EnergyEq      [-] = 0.00135792
----------------------------------------

========================================
 Iteration # 113 @ LESSOPEN=| /usr/bin/lesspipe %s
========================================
TimeStep      [s] = 5e-06
CourantNumber [-] = 2.17851
RunTime       [s] = 0.00057
IterationTime [s] = 0.05
ExecutionTime [h] = 0.00166667
RemainingTime [h] = 0.0568117
----------------------------------------
ContinuityEq  [-] = 0.00108612
MomentumEq    [-] = 0.0012471
EnergyEq      [-] = 0.0013563
----------------------------------------

========================================
 Iteration # 114 @ LESSOPEN=| /usr/bin/lesspipe %s
========================================
TimeStep      [s] = 5e-06
CourantNumber [-] = 2.17851
RunTime       [s] = 0.000575
IterationTime [s] = 0.05
ExecutionTime [h] = 0.00166667
RemainingTime [h] = 0.0563032
----------------------------------------
ContinuityEq  [-] = 0.00108499
MomentumEq    [-] = 0.00124567
EnergyEq      [-] = 0.00135479
----------------------------------------

========================================
 Iteration # 115 @ LESSOPEN=| /usr/bin/lesspipe %s
========================================
TimeStep      [s] = 5e-06
CourantNumber [-] = 2.17851
RunTime       [s] = 0.00058
IterationTime [s] = 0.05
ExecutionTime [h] = 0.00166667
RemainingTime [h] = 0.0558035
----------------------------------------
ContinuityEq  [-] = 0.00108376
MomentumEq    [-] = 0.00124426
EnergyEq      [-] = 0.00135327
----------------------------------------

========================================
 Iteration # 116 @ LESSOPEN=| /usr/bin/lesspipe %s
========================================
TimeStep      [s] = 5e-06
CourantNumber [-] = 2.1785
RunTime       [s] = 0.000585
IterationTime [s] = 0.05
ExecutionTime [h] = 0.00166667
RemainingTime [h] = 0.0553123
----------------------------------------
ContinuityEq  [-] = 0.00108252
MomentumEq    [-] = 0.00124288
EnergyEq      [-] = 0.00135175
----------------------------------------

========================================
 Iteration # 117 @ LESSOPEN=| /usr/bin/lesspipe %s
========================================
TimeStep      [s] = 5e-06
CourantNumber [-] = 2.1785
RunTime       [s] = 0.00059
IterationTime [s] = 0.05
ExecutionTime [h] = 0.00166667
RemainingTime [h] = 0.0548294
----------------------------------------
ContinuityEq  [-] = 0.00108135
MomentumEq    [-] = 0.00124153
EnergyEq      [-] = 0.00135022
----------------------------------------

========================================
 Iteration # 118 @ LESSOPEN=| /usr/bin/lesspipe %s
========================================
TimeStep      [s] = 5e-06
CourantNumber [-] = 2.17849
RunTime       [s] = 0.000595
IterationTime [s] = 0.05
ExecutionTime [h] = 0.00166667
RemainingTime [h] = 0.0543547
----------------------------------------
ContinuityEq  [-] = 0.00108016
MomentumEq    [-] = 0.00124019
EnergyEq      [-] = 0.00134866
----------------------------------------

========================================
 Iteration # 119 @ LESSOPEN=| /usr/bin/lesspipe %s
========================================
TimeStep      [s] = 5e-06
CourantNumber [-] = 2.17849
RunTime       [s] = 0.0006
IterationTime [s] = 0.05
ExecutionTime [h] = 0.00166667
RemainingTime [h] = 0.0538878
----------------------------------------
ContinuityEq  [-] = 0.00107884
MomentumEq    [-] = 0.00123881
EnergyEq      [-] = 0.00134713
----------------------------------------

========================================
 Iteration # 120 @ LESSOPEN=| /usr/bin/lesspipe %s
========================================
TimeStep      [s] = 5e-06
CourantNumber [-] = 2.1785
RunTime       [s] = 0.000605
IterationTime [s] = 0.05
ExecutionTime [h] = 0.00166667
RemainingTime [h] = 0.0534287
----------------------------------------
ContinuityEq  [-] = 0.00107738
MomentumEq    [-] = 0.00123742
EnergyEq      [-] = 0.00134567
----------------------------------------

========================================
 Iteration # 121 @ LESSOPEN=| /usr/bin/lesspipe %s
========================================
TimeStep      [s] = 5e-06
CourantNumber [-] = 2.1785
RunTime       [s] = 0.00061
IterationTime [s] = 0.05
ExecutionTime [h] = 0.00194444
RemainingTime [h] = 0.0618066
----------------------------------------
ContinuityEq  [-] = 0.00107587
MomentumEq    [-] = 0.00123603
EnergyEq      [-] = 0.00134417
----------------------------------------

========================================
 Iteration # 122 @ LESSOPEN=| /usr/bin/lesspipe %s
========================================
TimeStep      [s] = 5e-06
CourantNumber [-] = 2.1785
RunTime       [s] = 0.000615
IterationTime [s] = 0.05
ExecutionTime [h] = 0.00194444
RemainingTime [h] = 0.0612883
----------------------------------------
ContinuityEq  [-] = 0.00107443
MomentumEq    [-] = 0.00123465
EnergyEq      [-] = 0.00134265
----------------------------------------

========================================
 Iteration # 123 @ LESSOPEN=| /usr/bin/lesspipe %s
========================================
TimeStep      [s] = 5e-06
CourantNumber [-] = 2.1785
RunTime       [s] = 0.00062
IterationTime [s] = 0.05
ExecutionTime [h] = 0.00194444
RemainingTime [h] = 0.0607784
----------------------------------------
ContinuityEq  [-] = 0.00107301
MomentumEq    [-] = 0.00123329
EnergyEq      [-] = 0.00134111
----------------------------------------

========================================
 Iteration # 124 @ LESSOPEN=| /usr/bin/lesspipe %s
========================================
TimeStep      [s] = 5e-06
CourantNumber [-] = 2.1785
RunTime       [s] = 0.000625
IterationTime [s] = 0.05
ExecutionTime [h] = 0.00194444
RemainingTime [h] = 0.0602766
----------------------------------------
ContinuityEq  [-] = 0.00107208
MomentumEq    [-] = 0.00123193
EnergyEq      [-] = 0.00133951
----------------------------------------

========================================
 Iteration # 125 @ LESSOPEN=| /usr/bin/lesspipe %s
========================================
TimeStep      [s] = 5e-06
CourantNumber [-] = 2.17849
RunTime       [s] = 0.00063
IterationTime [s] = 0.05
ExecutionTime [h] = 0.00194444
RemainingTime [h] = 0.0597828
----------------------------------------
ContinuityEq  [-] = 0.00107107
MomentumEq    [-] = 0.00123055
EnergyEq      [-] = 0.00133804
----------------------------------------

========================================
 Iteration # 126 @ LESSOPEN=| /usr/bin/lesspipe %s
========================================
TimeStep      [s] = 5e-06
CourantNumber [-] = 2.17849
RunTime       [s] = 0.000635
IterationTime [s] = 0.05
ExecutionTime [h] = 0.00194444
RemainingTime [h] = 0.0592967
----------------------------------------
ContinuityEq  [-] = 0.00106997
MomentumEq    [-] = 0.00122918
EnergyEq      [-] = 0.00133657
----------------------------------------

========================================
 Iteration # 127 @ LESSOPEN=| /usr/bin/lesspipe %s
========================================
TimeStep      [s] = 5e-06
CourantNumber [-] = 2.17849
RunTime       [s] = 0.00064
IterationTime [s] = 0.05
ExecutionTime [h] = 0.00194444
RemainingTime [h] = 0.0588183
----------------------------------------
ContinuityEq  [-] = 0.00106887
MomentumEq    [-] = 0.00122782
EnergyEq      [-] = 0.00133509
----------------------------------------

========================================
 Iteration # 128 @ LESSOPEN=| /usr/bin/lesspipe %s
========================================
TimeStep      [s] = 5e-06
CourantNumber [-] = 2.17849
RunTime       [s] = 0.000645
IterationTime [s] = 0.05
ExecutionTime [h] = 0.00194444
RemainingTime [h] = 0.0583472
----------------------------------------
ContinuityEq  [-] = 0.00106777
MomentumEq    [-] = 0.00122646
EnergyEq      [-] = 0.00133357
----------------------------------------

========================================
 Iteration # 129 @ LESSOPEN=| /usr/bin/lesspipe %s
========================================
TimeStep      [s] = 5e-06
CourantNumber [-] = 2.17848
RunTime       [s] = 0.00065
IterationTime [s] = 0.05
ExecutionTime [h] = 0.00194444
RemainingTime [h] = 0.0578835
----------------------------------------
ContinuityEq  [-] = 0.00106662
MomentumEq    [-] = 0.00122506
EnergyEq      [-] = 0.00133196
----------------------------------------

========================================
 Iteration # 130 @ LESSOPEN=| /usr/bin/lesspipe %s
========================================
TimeStep      [s] = 5e-06
CourantNumber [-] = 2.17848
RunTime       [s] = 0.000655
IterationTime [s] = 0.05
ExecutionTime [h] = 0.00194444
RemainingTime [h] = 0.0574268
----------------------------------------
ContinuityEq  [-] = 0.00106542
MomentumEq    [-] = 0.00122366
EnergyEq      [-] = 0.00133039
----------------------------------------

========================================
 Iteration # 131 @ LESSOPEN=| /usr/bin/lesspipe %s
========================================
TimeStep      [s] = 5e-06
CourantNumber [-] = 2.17848
RunTime       [s] = 0.00066
IterationTime [s] = 0.05
ExecutionTime [h] = 0.00194444
RemainingTime [h] = 0.056977
----------------------------------------
ContinuityEq  [-] = 0.00106412
MomentumEq    [-] = 0.0012223
EnergyEq      [-] = 0.00132893
----------------------------------------

========================================
 Iteration # 132 @ LESSOPEN=| /usr/bin/lesspipe %s
========================================
TimeStep      [s] = 5e-06
CourantNumber [-] = 2.17848
RunTime       [s] = 0.000665
IterationTime [s] = 0.05
ExecutionTime [h] = 0.00194444
RemainingTime [h] = 0.056534
----------------------------------------
ContinuityEq  [-] = 0.00106278
MomentumEq    [-] = 0.00122096
EnergyEq      [-] = 0.00132749
----------------------------------------

========================================
 Iteration # 133 @ LESSOPEN=| /usr/bin/lesspipe %s
========================================
TimeStep      [s] = 5e-06
CourantNumber [-] = 2.17848
RunTime       [s] = 0.00067
IterationTime [s] = 0.05
ExecutionTime [h] = 0.00194444
RemainingTime [h] = 0.0560976
----------------------------------------
ContinuityEq  [-] = 0.00106147
MomentumEq    [-] = 0.00121962
EnergyEq      [-] = 0.00132604
----------------------------------------

========================================
 Iteration # 134 @ LESSOPEN=| /usr/bin/lesspipe %s
========================================
TimeStep      [s] = 5e-06
CourantNumber [-] = 2.17848
RunTime       [s] = 0.000675
IterationTime [s] = 0.06
ExecutionTime [h] = 0.00194444
RemainingTime [h] = 0.0556676
----------------------------------------
ContinuityEq  [-] = 0.00106012
MomentumEq    [-] = 0.00121825
EnergyEq      [-] = 0.00132451
----------------------------------------

========================================
 Iteration # 135 @ LESSOPEN=| /usr/bin/lesspipe %s
========================================
TimeStep      [s] = 5e-06
CourantNumber [-] = 2.17848
RunTime       [s] = 0.00068
IterationTime [s] = 0.04
ExecutionTime [h] = 0.00194444
RemainingTime [h] = 0.055244
----------------------------------------
ContinuityEq  [-] = 0.00105867
MomentumEq    [-] = 0.00121682
EnergyEq      [-] = 0.00132289
----------------------------------------

========================================
 Iteration # 136 @ LESSOPEN=| /usr/bin/lesspipe %s
========================================
TimeStep      [s] = 5e-06
CourantNumber [-] = 2.17848
RunTime       [s] = 0.000685
IterationTime [s] = 0.06
ExecutionTime [h] = 0.00194444
RemainingTime [h] = 0.0548266
----------------------------------------
ContinuityEq  [-] = 0.00105718
MomentumEq    [-] = 0.00121541
EnergyEq      [-] = 0.00132138
----------------------------------------

========================================
 Iteration # 137 @ LESSOPEN=| /usr/bin/lesspipe %s
========================================
TimeStep      [s] = 5e-06
CourantNumber [-] = 2.17848
RunTime       [s] = 0.00069
IterationTime [s] = 0.04
ExecutionTime [h] = 0.00194444
RemainingTime [h] = 0.0544152
----------------------------------------
ContinuityEq  [-] = 0.00105591
MomentumEq    [-] = 0.00121404
EnergyEq      [-] = 0.00131989
----------------------------------------

========================================
 Iteration # 138 @ LESSOPEN=| /usr/bin/lesspipe %s
========================================
TimeStep      [s] = 5e-06
CourantNumber [-] = 2.17848
RunTime       [s] = 0.000695
IterationTime [s] = 0.06
ExecutionTime [h] = 0.00194444
RemainingTime [h] = 0.0540097
----------------------------------------
ContinuityEq  [-] = 0.00105496
MomentumEq    [-] = 0.00121272
EnergyEq      [-] = 0.00131844
----------------------------------------

========================================
 Iteration # 139 @ LESSOPEN=| /usr/bin/lesspipe %s
========================================
TimeStep      [s] = 5e-06
CourantNumber [-] = 2.17847
RunTime       [s] = 0.0007
IterationTime [s] = 0.05
ExecutionTime [h] = 0.00194444
RemainingTime [h] = 0.05361
----------------------------------------
ContinuityEq  [-] = 0.001054
MomentumEq    [-] = 0.00121138
EnergyEq      [-] = 0.00131697
----------------------------------------

========================================
 Iteration # 140 @ LESSOPEN=| /usr/bin/lesspipe %s
========================================
TimeStep      [s] = 5e-06
CourantNumber [-] = 2.17847
RunTime       [s] = 0.000705
IterationTime [s] = 0.05
ExecutionTime [h] = 0.00194444
RemainingTime [h] = 0.053216
----------------------------------------
ContinuityEq  [-] = 0.00105294
MomentumEq    [-] = 0.00120999
EnergyEq      [-] = 0.00131538
----------------------------------------

========================================
 Iteration # 141 @ LESSOPEN=| /usr/bin/lesspipe %s
========================================
TimeStep      [s] = 5e-06
CourantNumber [-] = 2.17847
RunTime       [s] = 0.00071
IterationTime [s] = 0.05
ExecutionTime [h] = 0.00194444
RemainingTime [h] = 0.0528276
----------------------------------------
ContinuityEq  [-] = 0.00105178
MomentumEq    [-] = 0.00120857
EnergyEq      [-] = 0.00131383
----------------------------------------

========================================
 Iteration # 142 @ LESSOPEN=| /usr/bin/lesspipe %s
========================================
TimeStep      [s] = 5e-06
CourantNumber [-] = 2.17847
RunTime       [s] = 0.000715
IterationTime [s] = 0.05
ExecutionTime [h] = 0.00222222
RemainingTime [h] = 0.0599366
----------------------------------------
ContinuityEq  [-] = 0.00105055
MomentumEq    [-] = 0.00120718
EnergyEq      [-] = 0.00131233
----------------------------------------

========================================
 Iteration # 143 @ LESSOPEN=| /usr/bin/lesspipe %s
========================================
TimeStep      [s] = 5e-06
CourantNumber [-] = 2.17847
RunTime       [s] = 0.00072
IterationTime [s] = 0.05
ExecutionTime [h] = 0.00222222
RemainingTime [h] = 0.059505
----------------------------------------
ContinuityEq  [-] = 0.00104932
MomentumEq    [-] = 0.00120584
EnergyEq      [-] = 0.00131085
----------------------------------------

========================================
 Iteration # 144 @ LESSOPEN=| /usr/bin/lesspipe %s
========================================
TimeStep      [s] = 5e-06
CourantNumber [-] = 2.17847
RunTime       [s] = 0.000725
IterationTime [s] = 0.05
ExecutionTime [h] = 0.00222222
RemainingTime [h] = 0.0590793
----------------------------------------
ContinuityEq  [-] = 0.00104815
MomentumEq    [-] = 0.00120449
EnergyEq      [-] = 0.00130937
----------------------------------------

========================================
 Iteration # 145 @ LESSOPEN=| /usr/bin/lesspipe %s
========================================
TimeStep      [s] = 5e-06
CourantNumber [-] = 2.17847
RunTime       [s] = 0.00073
IterationTime [s] = 0.05
ExecutionTime [h] = 0.00222222
RemainingTime [h] = 0.0586594
----------------------------------------
ContinuityEq  [-] = 0.00104692
MomentumEq    [-] = 0.00120313
EnergyEq      [-] = 0.00130784
----------------------------------------

========================================
 Iteration # 146 @ LESSOPEN=| /usr/bin/lesspipe %s
========================================
TimeStep      [s] = 5e-06
CourantNumber [-] = 2.17847
RunTime       [s] = 0.000735
IterationTime [s] = 0.05
ExecutionTime [h] = 0.00222222
RemainingTime [h] = 0.0582452
----------------------------------------
ContinuityEq  [-] = 0.0010456
MomentumEq    [-] = 0.00120172
EnergyEq      [-] = 0.00130626
----------------------------------------

========================================
 Iteration # 147 @ LESSOPEN=| /usr/bin/lesspipe %s
========================================
TimeStep      [s] = 5e-06
CourantNumber [-] = 2.17847
RunTime       [s] = 0.00074
IterationTime [s] = 0.05
ExecutionTime [h] = 0.00222222
RemainingTime [h] = 0.0578367
----------------------------------------
ContinuityEq  [-] = 0.00104421
MomentumEq    [-] = 0.00120033
EnergyEq      [-] = 0.00130479
----------------------------------------

========================================
 Iteration # 148 @ LESSOPEN=| /usr/bin/lesspipe %s
========================================
TimeStep      [s] = 5e-06
CourantNumber [-] = 2.17847
RunTime       [s] = 0.000745
IterationTime [s] = 0.05
ExecutionTime [h] = 0.00222222
RemainingTime [h] = 0.0574336
----------------------------------------
ContinuityEq  [-] = 0.00104277
MomentumEq    [-] = 0.00119898
EnergyEq      [-] = 0.00130335
----------------------------------------

========================================
 Iteration # 149 @ LESSOPEN=| /usr/bin/lesspipe %s
========================================
TimeStep      [s] = 5e-06
CourantNumber [-] = 2.17846
RunTime       [s] = 0.00075
IterationTime [s] = 0.05
ExecutionTime [h] = 0.00222222
RemainingTime [h] = 0.0570359
----------------------------------------
ContinuityEq  [-] = 0.00104141
MomentumEq    [-] = 0.00119766
EnergyEq      [-] = 0.00130189
----------------------------------------

========================================
 Iteration # 150 @ LESSOPEN=| /usr/bin/lesspipe %s
========================================
TimeStep      [s] = 5e-06
CourantNumber [-] = 2.17846
RunTime       [s] = 0.000755
IterationTime [s] = 0.05
ExecutionTime [h] = 0.00222222
RemainingTime [h] = 0.0566435
----------------------------------------
ContinuityEq  [-] = 0.00104007
MomentumEq    [-] = 0.00119631
EnergyEq      [-] = 0.00130039
----------------------------------------

========================================
 Iteration # 151 @ LESSOPEN=| /usr/bin/lesspipe %s
========================================
TimeStep      [s] = 5e-06
CourantNumber [-] = 2.17846
RunTime       [s] = 0.00076
IterationTime [s] = 0.05
ExecutionTime [h] = 0.00222222
RemainingTime [h] = 0.0562562
----------------------------------------
ContinuityEq  [-] = 0.00103907
MomentumEq    [-] = 0.00119489
EnergyEq      [-] = 0.00129877
----------------------------------------

========================================
 Iteration # 152 @ LESSOPEN=| /usr/bin/lesspipe %s
========================================
TimeStep      [s] = 5e-06
CourantNumber [-] = 2.17846
RunTime       [s] = 0.000765
IterationTime [s] = 0.05
ExecutionTime [h] = 0.00222222
RemainingTime [h] = 0.055874
----------------------------------------
ContinuityEq  [-] = 0.001038
MomentumEq    [-] = 0.00119346
EnergyEq      [-] = 0.00129722
----------------------------------------

========================================
 Iteration # 153 @ LESSOPEN=| /usr/bin/lesspipe %s
========================================
TimeStep      [s] = 5e-06
CourantNumber [-] = 2.17845
RunTime       [s] = 0.00077
IterationTime [s] = 0.05
ExecutionTime [h] = 0.00222222
RemainingTime [h] = 0.0554967
----------------------------------------
ContinuityEq  [-] = 0.00103688
MomentumEq    [-] = 0.00119209
EnergyEq      [-] = 0.00129577
----------------------------------------

========================================
 Iteration # 154 @ LESSOPEN=| /usr/bin/lesspipe %s
========================================
TimeStep      [s] = 5e-06
CourantNumber [-] = 2.17846
RunTime       [s] = 0.000775
IterationTime [s] = 0.05
ExecutionTime [h] = 0.00222222
RemainingTime [h] = 0.0551243
----------------------------------------
ContinuityEq  [-] = 0.00103577
MomentumEq    [-] = 0.00119077
EnergyEq      [-] = 0.00129432
----------------------------------------

========================================
 Iteration # 155 @ LESSOPEN=| /usr/bin/lesspipe %s
========================================
TimeStep      [s] = 5e-06
CourantNumber [-] = 2.17846
RunTime       [s] = 0.00078
IterationTime [s] = 0.05
ExecutionTime [h] = 0.00222222
RemainingTime [h] = 0.0547567
----------------------------------------
ContinuityEq  [-] = 0.00103471
MomentumEq    [-] = 0.00118945
EnergyEq      [-] = 0.00129286
----------------------------------------

========================================
 Iteration # 156 @ LESSOPEN=| /usr/bin/lesspipe %s
========================================
TimeStep      [s] = 5e-06
CourantNumber [-] = 2.17846
RunTime       [s] = 0.000785
IterationTime [s] = 0.05
ExecutionTime [h] = 0.00222222
RemainingTime [h] = 0.0543938
----------------------------------------
ContinuityEq  [-] = 0.00103358
MomentumEq    [-] = 0.00118809
EnergyEq      [-] = 0.00129129
----------------------------------------

========================================
 Iteration # 157 @ LESSOPEN=| /usr/bin/lesspipe %s
========================================
TimeStep      [s] = 5e-06
CourantNumber [-] = 2.17846
RunTime       [s] = 0.00079
IterationTime [s] = 0.05
ExecutionTime [h] = 0.00222222
RemainingTime [h] = 0.0540355
----------------------------------------
ContinuityEq  [-] = 0.00103234
MomentumEq    [-] = 0.00118668
EnergyEq      [-] = 0.0012897
----------------------------------------

========================================
 Iteration # 158 @ LESSOPEN=| /usr/bin/lesspipe %s
========================================
TimeStep      [s] = 5e-06
CourantNumber [-] = 2.17846
RunTime       [s] = 0.000795
IterationTime [s] = 0.05
ExecutionTime [h] = 0.00222222
RemainingTime [h] = 0.0536817
----------------------------------------
ContinuityEq  [-] = 0.00103103
MomentumEq    [-] = 0.00118528
EnergyEq      [-] = 0.00128824
----------------------------------------

========================================
 Iteration # 159 @ LESSOPEN=| /usr/bin/lesspipe %s
========================================
TimeStep      [s] = 5e-06
CourantNumber [-] = 2.17846
RunTime       [s] = 0.0008
IterationTime [s] = 0.06
ExecutionTime [h] = 0.00222222
RemainingTime [h] = 0.0533323
----------------------------------------
ContinuityEq  [-] = 0.0010297
MomentumEq    [-] = 0.00118393
EnergyEq      [-] = 0.00128679
----------------------------------------

========================================
 Iteration # 160 @ LESSOPEN=| /usr/bin/lesspipe %s
========================================
TimeStep      [s] = 5e-06
CourantNumber [-] = 2.17845
RunTime       [s] = 0.000805
IterationTime [s] = 0.04
ExecutionTime [h] = 0.00222222
RemainingTime [h] = 0.0529872
----------------------------------------
ContinuityEq  [-] = 0.00102844
MomentumEq    [-] = 0.00118261
EnergyEq      [-] = 0.00128535
----------------------------------------

========================================
 Iteration # 161 @ LESSOPEN=| /usr/bin/lesspipe %s
[...]
ContinuityEq  [-] = 2.30231e-16
MomentumEq    [-] = 2.59955e-16
EnergyEq      [-] = 2.31843e-16
----------------------------------------

========================================
 Iteration # 3959 @ LESSOPEN=| /usr/bin/lesspipe %s
========================================
TimeStep      [s] = 5e-06
CourantNumber [-] = 2.10645
RunTime       [s] = 0.0198
IterationTime [s] = 0.04
ExecutionTime [h] = 0.0566667
RemainingTime [h] = 0.000572379
----------------------------------------
ContinuityEq  [-] = 2.3173e-16
MomentumEq    [-] = 2.61114e-16
EnergyEq      [-] = 2.33027e-16
----------------------------------------

========================================
 Iteration # 3960 @ LESSOPEN=| /usr/bin/lesspipe %s
========================================
TimeStep      [s] = 5e-06
CourantNumber [-] = 2.10645
RunTime       [s] = 0.019805
IterationTime [s] = 0.06
ExecutionTime [h] = 0.0566667
RemainingTime [h] = 0.000557929
----------------------------------------
ContinuityEq  [-] = 2.33168e-16
MomentumEq    [-] = 2.60509e-16
EnergyEq      [-] = 2.3164e-16
----------------------------------------

========================================
 Iteration # 3961 @ LESSOPEN=| /usr/bin/lesspipe %s
========================================
TimeStep      [s] = 5e-06
CourantNumber [-] = 2.10645
RunTime       [s] = 0.01981
IterationTime [s] = 0.05
ExecutionTime [h] = 0.0566667
RemainingTime [h] = 0.000543486
----------------------------------------
ContinuityEq  [-] = 2.30851e-16
MomentumEq    [-] = 2.60541e-16
EnergyEq      [-] = 2.31305e-16
----------------------------------------

========================================
 Iteration # 3962 @ LESSOPEN=| /usr/bin/lesspipe %s
========================================
TimeStep      [s] = 5e-06
CourantNumber [-] = 2.10645
RunTime       [s] = 0.019815
IterationTime [s] = 0.05
ExecutionTime [h] = 0.0566667
RemainingTime [h] = 0.00052905
----------------------------------------
ContinuityEq  [-] = 2.31384e-16
MomentumEq    [-] = 2.6053e-16
EnergyEq      [-] = 2.3078e-16
----------------------------------------

========================================
 Iteration # 3963 @ LESSOPEN=| /usr/bin/lesspipe %s
========================================
TimeStep      [s] = 5e-06
CourantNumber [-] = 2.10645
RunTime       [s] = 0.01982
IterationTime [s] = 0.05
ExecutionTime [h] = 0.0566667
RemainingTime [h] = 0.000514621
----------------------------------------
ContinuityEq  [-] = 2.31834e-16
MomentumEq    [-] = 2.62924e-16
EnergyEq      [-] = 2.29124e-16
----------------------------------------

========================================
 Iteration # 3964 @ LESSOPEN=| /usr/bin/lesspipe %s
========================================
TimeStep      [s] = 5e-06
CourantNumber [-] = 2.10645
RunTime       [s] = 0.019825
IterationTime [s] = 0.05
ExecutionTime [h] = 0.0566667
RemainingTime [h] = 0.0005002
----------------------------------------
ContinuityEq  [-] = 2.32153e-16
MomentumEq    [-] = 2.62449e-16
EnergyEq      [-] = 2.33605e-16
----------------------------------------

========================================
 Iteration # 3965 @ LESSOPEN=| /usr/bin/lesspipe %s
========================================
TimeStep      [s] = 5e-06
CourantNumber [-] = 2.10645
RunTime       [s] = 0.01983
IterationTime [s] = 0.05
ExecutionTime [h] = 0.0566667
RemainingTime [h] = 0.000485786
----------------------------------------
ContinuityEq  [-] = 2.33349e-16
MomentumEq    [-] = 2.61906e-16
EnergyEq      [-] = 2.32521e-16
----------------------------------------

========================================
 Iteration # 3966 @ LESSOPEN=| /usr/bin/lesspipe %s
========================================
TimeStep      [s] = 5e-06
CourantNumber [-] = 2.10645
RunTime       [s] = 0.019835
IterationTime [s] = 0.05
ExecutionTime [h] = 0.0566667
RemainingTime [h] = 0.00047138
----------------------------------------
ContinuityEq  [-] = 2.34233e-16
MomentumEq    [-] = 2.61869e-16
EnergyEq      [-] = 2.31934e-16
----------------------------------------

========================================
 Iteration # 3967 @ LESSOPEN=| /usr/bin/lesspipe %s
========================================
TimeStep      [s] = 5e-06
CourantNumber [-] = 2.10645
RunTime       [s] = 0.01984
IterationTime [s] = 0.05
ExecutionTime [h] = 0.0566667
RemainingTime [h] = 0.00045698
----------------------------------------
ContinuityEq  [-] = 2.32695e-16
MomentumEq    [-] = 2.6173e-16
EnergyEq      [-] = 2.31298e-16
----------------------------------------

========================================
 Iteration # 3968 @ LESSOPEN=| /usr/bin/lesspipe %s
========================================
TimeStep      [s] = 5e-06
CourantNumber [-] = 2.10645
RunTime       [s] = 0.019845
IterationTime [s] = 0.05
ExecutionTime [h] = 0.0566667
RemainingTime [h] = 0.000442588
----------------------------------------
ContinuityEq  [-] = 2.33303e-16
MomentumEq    [-] = 2.60553e-16
EnergyEq      [-] = 2.31363e-16
----------------------------------------

========================================
 Iteration # 3969 @ LESSOPEN=| /usr/bin/lesspipe %s
========================================
TimeStep      [s] = 5e-06
CourantNumber [-] = 2.10645
RunTime       [s] = 0.01985
IterationTime [s] = 0.05
ExecutionTime [h] = 0.0566667
RemainingTime [h] = 0.000428203
----------------------------------------
ContinuityEq  [-] = 2.32731e-16
MomentumEq    [-] = 2.59887e-16
EnergyEq      [-] = 2.3204e-16
----------------------------------------

========================================
 Iteration # 3970 @ LESSOPEN=| /usr/bin/lesspipe %s
========================================
TimeStep      [s] = 5e-06
CourantNumber [-] = 2.10645
RunTime       [s] = 0.019855
IterationTime [s] = 0.05
ExecutionTime [h] = 0.0566667
RemainingTime [h] = 0.000413825
----------------------------------------
ContinuityEq  [-] = 2.30092e-16
MomentumEq    [-] = 2.62362e-16
EnergyEq      [-] = 2.32473e-16
----------------------------------------

========================================
 Iteration # 3971 @ LESSOPEN=| /usr/bin/lesspipe %s
========================================
TimeStep      [s] = 5e-06
CourantNumber [-] = 2.10645
RunTime       [s] = 0.01986
IterationTime [s] = 0.05
ExecutionTime [h] = 0.0566667
RemainingTime [h] = 0.000399455
----------------------------------------
ContinuityEq  [-] = 2.32773e-16
MomentumEq    [-] = 2.60609e-16
EnergyEq      [-] = 2.31294e-16
----------------------------------------

========================================
 Iteration # 3972 @ LESSOPEN=| /usr/bin/lesspipe %s
========================================
TimeStep      [s] = 5e-06
CourantNumber [-] = 2.10645
RunTime       [s] = 0.019865
IterationTime [s] = 0.05
ExecutionTime [h] = 0.0569444
RemainingTime [h] = 0.000386979
----------------------------------------
ContinuityEq  [-] = 2.33474e-16
MomentumEq    [-] = 2.6067e-16
EnergyEq      [-] = 2.31474e-16
----------------------------------------

========================================
 Iteration # 3973 @ LESSOPEN=| /usr/bin/lesspipe %s
========================================
TimeStep      [s] = 5e-06
CourantNumber [-] = 2.10645
RunTime       [s] = 0.01987
IterationTime [s] = 0.05
ExecutionTime [h] = 0.0569444
RemainingTime [h] = 0.000372553
----------------------------------------
ContinuityEq  [-] = 2.34336e-16
MomentumEq    [-] = 2.60358e-16
EnergyEq      [-] = 2.31557e-16
----------------------------------------

========================================
 Iteration # 3974 @ LESSOPEN=| /usr/bin/lesspipe %s
========================================
TimeStep      [s] = 5e-06
CourantNumber [-] = 2.10645
RunTime       [s] = 0.019875
IterationTime [s] = 0.05
ExecutionTime [h] = 0.0569444
RemainingTime [h] = 0.000358134
----------------------------------------
ContinuityEq  [-] = 2.32827e-16
MomentumEq    [-] = 2.59975e-16
EnergyEq      [-] = 2.30614e-16
----------------------------------------

========================================
 Iteration # 3975 @ LESSOPEN=| /usr/bin/lesspipe %s
========================================
TimeStep      [s] = 5e-06
CourantNumber [-] = 2.10645
RunTime       [s] = 0.01988
IterationTime [s] = 0.05
ExecutionTime [h] = 0.0569444
RemainingTime [h] = 0.000343722
----------------------------------------
ContinuityEq  [-] = 2.32889e-16
MomentumEq    [-] = 2.60956e-16
EnergyEq      [-] = 2.31602e-16
----------------------------------------

========================================
 Iteration # 3976 @ LESSOPEN=| /usr/bin/lesspipe %s
========================================
TimeStep      [s] = 5e-06
CourantNumber [-] = 2.10645
RunTime       [s] = 0.019885
IterationTime [s] = 0.05
ExecutionTime [h] = 0.0569444
RemainingTime [h] = 0.000329318
----------------------------------------
ContinuityEq  [-] = 2.31361e-16
MomentumEq    [-] = 2.59543e-16
EnergyEq      [-] = 2.31892e-16
----------------------------------------

========================================
 Iteration # 3977 @ LESSOPEN=| /usr/bin/lesspipe %s
========================================
TimeStep      [s] = 5e-06
CourantNumber [-] = 2.10645
RunTime       [s] = 0.01989
IterationTime [s] = 0.05
ExecutionTime [h] = 0.0569444
RemainingTime [h] = 0.00031492
----------------------------------------
ContinuityEq  [-] = 2.32886e-16
MomentumEq    [-] = 2.60232e-16
EnergyEq      [-] = 2.31923e-16
----------------------------------------

========================================
 Iteration # 3978 @ LESSOPEN=| /usr/bin/lesspipe %s
========================================
TimeStep      [s] = 5e-06
CourantNumber [-] = 2.10645
RunTime       [s] = 0.019895
IterationTime [s] = 0.05
ExecutionTime [h] = 0.0569444
RemainingTime [h] = 0.00030053
----------------------------------------
ContinuityEq  [-] = 2.32274e-16
MomentumEq    [-] = 2.6043e-16
EnergyEq      [-] = 2.32133e-16
----------------------------------------

========================================
 Iteration # 3979 @ LESSOPEN=| /usr/bin/lesspipe %s
========================================
TimeStep      [s] = 5e-06
CourantNumber [-] = 2.10645
RunTime       [s] = 0.0199
IterationTime [s] = 0.05
ExecutionTime [h] = 0.0569444
RemainingTime [h] = 0.000286147
----------------------------------------
ContinuityEq  [-] = 2.34102e-16
MomentumEq    [-] = 2.62235e-16
EnergyEq      [-] = 2.31383e-16
----------------------------------------

========================================
 Iteration # 3980 @ LESSOPEN=| /usr/bin/lesspipe %s
========================================
TimeStep      [s] = 5e-06
CourantNumber [-] = 2.10645
RunTime       [s] = 0.019905
IterationTime [s] = 0.05
ExecutionTime [h] = 0.0569444
RemainingTime [h] = 0.000271772
----------------------------------------
ContinuityEq  [-] = 2.32863e-16
MomentumEq    [-] = 2.61926e-16
EnergyEq      [-] = 2.33674e-16
----------------------------------------

========================================
 Iteration # 3981 @ LESSOPEN=| /usr/bin/lesspipe %s
========================================
TimeStep      [s] = 5e-06
CourantNumber [-] = 2.10645
RunTime       [s] = 0.01991
IterationTime [s] = 0.05
ExecutionTime [h] = 0.0569444
RemainingTime [h] = 0.000257403
----------------------------------------
ContinuityEq  [-] = 2.33768e-16
MomentumEq    [-] = 2.60723e-16
EnergyEq      [-] = 2.33937e-16
----------------------------------------

========================================
 Iteration # 3982 @ LESSOPEN=| /usr/bin/lesspipe %s
========================================
TimeStep      [s] = 5e-06
CourantNumber [-] = 2.10645
RunTime       [s] = 0.019915
IterationTime [s] = 0.05
ExecutionTime [h] = 0.0569444
RemainingTime [h] = 0.000243042
----------------------------------------
ContinuityEq  [-] = 2.34604e-16
MomentumEq    [-] = 2.60989e-16
EnergyEq      [-] = 2.34788e-16
----------------------------------------

========================================
 Iteration # 3983 @ LESSOPEN=| /usr/bin/lesspipe %s
========================================
TimeStep      [s] = 5e-06
CourantNumber [-] = 2.10645
RunTime       [s] = 0.01992
IterationTime [s] = 0.06
ExecutionTime [h] = 0.0569444
RemainingTime [h] = 0.000228688
----------------------------------------
ContinuityEq  [-] = 2.33656e-16
MomentumEq    [-] = 2.63106e-16
EnergyEq      [-] = 2.35269e-16
----------------------------------------

========================================
 Iteration # 3984 @ LESSOPEN=| /usr/bin/lesspipe %s
========================================
TimeStep      [s] = 5e-06
CourantNumber [-] = 2.10645
RunTime       [s] = 0.019925
IterationTime [s] = 0.04
ExecutionTime [h] = 0.0569444
RemainingTime [h] = 0.000214341
----------------------------------------
ContinuityEq  [-] = 2.33944e-16
MomentumEq    [-] = 2.62623e-16
EnergyEq      [-] = 2.30795e-16
----------------------------------------

========================================
 Iteration # 3985 @ LESSOPEN=| /usr/bin/lesspipe %s
========================================
TimeStep      [s] = 5e-06
CourantNumber [-] = 2.10645
RunTime       [s] = 0.01993
IterationTime [s] = 0.06
ExecutionTime [h] = 0.0569444
RemainingTime [h] = 0.000200002
----------------------------------------
ContinuityEq  [-] = 2.34778e-16
MomentumEq    [-] = 2.62604e-16
EnergyEq      [-] = 2.34999e-16
----------------------------------------

========================================
 Iteration # 3986 @ LESSOPEN=| /usr/bin/lesspipe %s
========================================
TimeStep      [s] = 5e-06
CourantNumber [-] = 2.10645
RunTime       [s] = 0.019935
IterationTime [s] = 0.04
ExecutionTime [h] = 0.0569444
RemainingTime [h] = 0.000185669
----------------------------------------
ContinuityEq  [-] = 2.32677e-16
MomentumEq    [-] = 2.62984e-16
EnergyEq      [-] = 2.31729e-16
----------------------------------------

========================================
 Iteration # 3987 @ LESSOPEN=| /usr/bin/lesspipe %s
========================================
TimeStep      [s] = 5e-06
CourantNumber [-] = 2.10645
RunTime       [s] = 0.01994
IterationTime [s] = 0.06
ExecutionTime [h] = 0.0569444
RemainingTime [h] = 0.000171344
----------------------------------------
ContinuityEq  [-] = 2.32163e-16
MomentumEq    [-] = 2.62264e-16
EnergyEq      [-] = 2.33685e-16
----------------------------------------

========================================
 Iteration # 3988 @ LESSOPEN=| /usr/bin/lesspipe %s
========================================
TimeStep      [s] = 5e-06
CourantNumber [-] = 2.10645
RunTime       [s] = 0.019945
IterationTime [s] = 0.05
ExecutionTime [h] = 0.0569444
RemainingTime [h] = 0.000157026
----------------------------------------
ContinuityEq  [-] = 2.32906e-16
MomentumEq    [-] = 2.60365e-16
EnergyEq      [-] = 2.34595e-16
----------------------------------------

========================================
 Iteration # 3989 @ LESSOPEN=| /usr/bin/lesspipe %s
========================================
TimeStep      [s] = 5e-06
CourantNumber [-] = 2.10645
RunTime       [s] = 0.01995
IterationTime [s] = 0.05
ExecutionTime [h] = 0.0569444
RemainingTime [h] = 0.000142715
----------------------------------------
ContinuityEq  [-] = 2.34223e-16
MomentumEq    [-] = 2.62168e-16
EnergyEq      [-] = 2.33733e-16
----------------------------------------

========================================
 Iteration # 3990 @ LESSOPEN=| /usr/bin/lesspipe %s
========================================
TimeStep      [s] = 5e-06
CourantNumber [-] = 2.10645
RunTime       [s] = 0.019955
IterationTime [s] = 0.05
ExecutionTime [h] = 0.0569444
RemainingTime [h] = 0.000128411
----------------------------------------
ContinuityEq  [-] = 2.34405e-16
MomentumEq    [-] = 2.61683e-16
EnergyEq      [-] = 2.32939e-16
----------------------------------------

========================================
 Iteration # 3991 @ LESSOPEN=| /usr/bin/lesspipe %s
========================================
TimeStep      [s] = 5e-06
CourantNumber [-] = 2.10645
RunTime       [s] = 0.01996
IterationTime [s] = 0.05
ExecutionTime [h] = 0.0569444
RemainingTime [h] = 0.000114115
----------------------------------------
ContinuityEq  [-] = 2.32471e-16
MomentumEq    [-] = 2.60235e-16
EnergyEq      [-] = 2.32658e-16
----------------------------------------

========================================
 Iteration # 3992 @ LESSOPEN=| /usr/bin/lesspipe %s
========================================
TimeStep      [s] = 5e-06
CourantNumber [-] = 2.10645
RunTime       [s] = 0.019965
IterationTime [s] = 0.05
ExecutionTime [h] = 0.0572222
RemainingTime [h] = 0.000100312
----------------------------------------
ContinuityEq  [-] = 2.34585e-16
MomentumEq    [-] = 2.61692e-16
EnergyEq      [-] = 2.33385e-16
----------------------------------------

========================================
 Iteration # 3993 @ LESSOPEN=| /usr/bin/lesspipe %s
========================================
TimeStep      [s] = 5e-06
CourantNumber [-] = 2.10645
RunTime       [s] = 0.01997
IterationTime [s] = 0.05
ExecutionTime [h] = 0.0572222
RemainingTime [h] = 8.59606e-05
----------------------------------------
ContinuityEq  [-] = 2.32514e-16
MomentumEq    [-] = 2.61913e-16
EnergyEq      [-] = 2.33741e-16
----------------------------------------

========================================
 Iteration # 3994 @ LESSOPEN=| /usr/bin/lesspipe %s
========================================
TimeStep      [s] = 5e-06
CourantNumber [-] = 2.10645
RunTime       [s] = 0.019975
IterationTime [s] = 0.05
ExecutionTime [h] = 0.0572222
RemainingTime [h] = 7.16159e-05
----------------------------------------
ContinuityEq  [-] = 2.33916e-16
MomentumEq    [-] = 2.62605e-16
EnergyEq      [-] = 2.32161e-16
----------------------------------------

========================================
 Iteration # 3995 @ LESSOPEN=| /usr/bin/lesspipe %s
========================================
TimeStep      [s] = 5e-06
CourantNumber [-] = 2.10645
RunTime       [s] = 0.01998
IterationTime [s] = 0.05
ExecutionTime [h] = 0.0572222
RemainingTime [h] = 5.72784e-05
----------------------------------------
ContinuityEq  [-] = 2.32834e-16
MomentumEq    [-] = 2.60498e-16
EnergyEq      [-] = 2.32148e-16
----------------------------------------

========================================
 Iteration # 3996 @ LESSOPEN=| /usr/bin/lesspipe %s
========================================
TimeStep      [s] = 5e-06
CourantNumber [-] = 2.10645
RunTime       [s] = 0.019985
IterationTime [s] = 0.05
ExecutionTime [h] = 0.0572222
RemainingTime [h] = 4.2948e-05
----------------------------------------
ContinuityEq  [-] = 2.33404e-16
MomentumEq    [-] = 2.59724e-16
EnergyEq      [-] = 2.29993e-16
----------------------------------------

========================================
 Iteration # 3997 @ LESSOPEN=| /usr/bin/lesspipe %s
========================================
TimeStep      [s] = 5e-06
CourantNumber [-] = 2.10645
RunTime       [s] = 0.01999
IterationTime [s] = 0.05
ExecutionTime [h] = 0.0572222
RemainingTime [h] = 2.86249e-05
----------------------------------------
ContinuityEq  [-] = 2.33866e-16
MomentumEq    [-] = 2.62818e-16
EnergyEq      [-] = 2.29498e-16
----------------------------------------

========================================
 Iteration # 3998 @ LESSOPEN=| /usr/bin/lesspipe %s
========================================
TimeStep      [s] = 5e-06
CourantNumber [-] = 2.10645
RunTime       [s] = 0.019995
IterationTime [s] = 0.05
ExecutionTime [h] = 0.0572222
RemainingTime [h] = 1.43088e-05
----------------------------------------
ContinuityEq  [-] = 2.35844e-16
MomentumEq    [-] = 2.60096e-16
EnergyEq      [-] = 2.32926e-16
----------------------------------------

========================================
 Iteration # 3999 @ LESSOPEN=| /usr/bin/lesspipe %s
========================================
TimeStep      [s] = 5e-06
CourantNumber [-] = 2.10645
RunTime       [s] = 0.02
IterationTime [s] = 0.22
ExecutionTime [h] = 0.0572222
RemainingTime [h] = -2.25326e-15
----------------------------------------
ContinuityEq  [-] = 2.33285e-16
MomentumEq    [-] = 2.60634e-16
EnergyEq      [-] = 2.29495e-16
----------------------------------------
AeroFoam terminated succesfully!
Mon Jul  3 22:33:31 CST 2017
