/*---------------------------------------------------------------------------*\
| =========                 |                                                 |
| \\      /  F ield         | OpenFOAM: The Open Source CFD Toolbox           |
|  \\    /   O peration     | Version:  4.1                                   |
|   \\  /    A nd           | Web:      www.OpenFOAM.org                      |
|    \\/     M anipulation  |                                                 |
\*---------------------------------------------------------------------------*/
Build  : 4.1
Exec   : /home/di/OpenFOAM/di-4.1/platforms/linux64GccDPInt32Opt/bin/AeroFoam
Date   : Jul 04 2017
Time   : 23:53:45
Host   : "ubuntu"
PID    : 34302
Case   : /home/di/OpenFOAM/di-4.1/solvers/AeroFoamV1-2008/tutorials/NACA0012/NACA0012_7k_M050_a0/NACA0012_7k_M050_a0
nProcs : 1
sigFpe : Enabling floating point exception trapping (FOAM_SIGFPE).
fileModificationChecking : Monitoring run-time modified files using timeStampMaster
allowSystemOperations : Allowing user-supplied system call operations

// * * * * * * * * * * * * * * * * * * * * * * * * * * * * * * * * * * * * * //
Create time

Create mesh for time = 0

// using new solver syntax:
cellDisplacement
{
    solver          PCG;
    preconditioner  DIC;
    tolerance       1e-08;
    relTol          0;
}

========================================
 Reading Thermodynamic Properties...
========================================
 gamma  [-] = 1.4
 Pr     [-] = 0.72
 R  [J/KgK] = 287.05
 Cp [J/KgK] = 717.625
 Cv [J/KgK] = 1004.67
----------------------------------------

========================================
 Reading Initial Conditions...
========================================
 Reading field p
 Reading field T
 Reading field U
----------------------------------------
 Creating conservative variables at t^(k)
 Creating conservative variables at t^(k-1)
 Creating conservative variables at t^(k-2)
 Creating conservative variables fluxes at t^(k)
 Creating primitive variables gradient fields (optional)
----------------------------------------

========================================
 Creating Mesh Connectivity...
========================================
Using standard algorithm...
Loop on Internal Faces...
 10 % 
 20 % 
 30 % 
 40 % 
 50 % 
 60 % 
 70 % 
 80 % 
 90 % 
100 % 
----------------------------------------
Loop on Boundary Faces...
 10 % 
 20 % 
 30 % 
 40 % 
 50 % 
 60 % 
 70 % 
 80 % 
 90 % 
100 % 
----------------------------------------

========================================
 Mesh 
========================================
 # of Faces    =  9808
 # of Cells    =  6620
 # of BndPatch =  3
 0) supersonicInlet @ inlet-outlet
 1) slip @ body
 2) empty @ defaultFaces
----------------------------------------

========================================
 Numerical Scheme 
========================================
 flowType      =  Euler
 timeScheme    =  RK2
 CourantMax    =  0
 CourantSteps  =  25
 MonotoneFlux  =  Roe
 HighResFlux   =  LW
 fluxLimiter   =  VL
 entropyFix    =  HH2
 extrapolateBC =  0
 residualNorm  =  L1
 minResidual   =  -1
----------------------------------------
 Does everything look fine? [y] to continue [n] otherwise 
 Starting time loop...

========================================
 Iteration # 0 @ LESSOPEN=| /usr/bin/lesspipe %s
========================================
TimeStep      [s] = 5e-06
CourantNumber [-] = 1.85695
RunTime       [s] = 5e-06
IterationTime [s] = 0.05
ExecutionTime [h] = 0
RemainingTime [h] = 0
----------------------------------------
ContinuityEq  [-] = 0.000557316
MomentumEq    [-] = 0.000557219
EnergyEq      [-] = 0.000765657
----------------------------------------

========================================
 Iteration # 1 @ LESSOPEN=| /usr/bin/lesspipe %s
========================================
TimeStep      [s] = 5e-06
CourantNumber [-] = 1.85695
RunTime       [s] = 1e-05
IterationTime [s] = 0.02
ExecutionTime [h] = 0
RemainingTime [h] = 0
----------------------------------------
ContinuityEq  [-] = 0.000542228
MomentumEq    [-] = 0.000642166
EnergyEq      [-] = 0.000740268
----------------------------------------

========================================
 Iteration # 2 @ LESSOPEN=| /usr/bin/lesspipe %s
========================================
TimeStep      [s] = 5e-06
CourantNumber [-] = 1.85695
RunTime       [s] = 1.5e-05
IterationTime [s] = 0.01
ExecutionTime [h] = 0
RemainingTime [h] = 0
----------------------------------------
ContinuityEq  [-] = 0.00053201
MomentumEq    [-] = 0.00077991
EnergyEq      [-] = 0.000724774
----------------------------------------

========================================
 Iteration # 3 @ LESSOPEN=| /usr/bin/lesspipe %s
========================================
TimeStep      [s] = 5e-06
CourantNumber [-] = 1.85695
RunTime       [s] = 2e-05
IterationTime [s] = 0.01
ExecutionTime [h] = 0
RemainingTime [h] = 0
----------------------------------------
ContinuityEq  [-] = 0.000523634
MomentumEq    [-] = 0.000928746
EnergyEq      [-] = 0.000713168
----------------------------------------

========================================
 Iteration # 4 @ LESSOPEN=| /usr/bin/lesspipe %s
========================================
TimeStep      [s] = 5e-06
CourantNumber [-] = 1.85695
RunTime       [s] = 2.5e-05
IterationTime [s] = 0.01
ExecutionTime [h] = 0
RemainingTime [h] = 0
----------------------------------------
ContinuityEq  [-] = 0.000516267
MomentumEq    [-] = 0.00106008
EnergyEq      [-] = 0.000703654
----------------------------------------

========================================
 Iteration # 5 @ LESSOPEN=| /usr/bin/lesspipe %s
========================================
TimeStep      [s] = 5e-06
CourantNumber [-] = 1.85695
RunTime       [s] = 3e-05
IterationTime [s] = 0.01
ExecutionTime [h] = 0
RemainingTime [h] = 0
----------------------------------------
ContinuityEq  [-] = 0.000509601
MomentumEq    [-] = 0.00116924
EnergyEq      [-] = 0.000695467
----------------------------------------

========================================
 Iteration # 6 @ LESSOPEN=| /usr/bin/lesspipe %s
========================================
TimeStep      [s] = 5e-06
CourantNumber [-] = 1.85695
RunTime       [s] = 3.5e-05
IterationTime [s] = 0.01
ExecutionTime [h] = 0
RemainingTime [h] = 0
----------------------------------------
ContinuityEq  [-] = 0.000503376
MomentumEq    [-] = 0.00125579
EnergyEq      [-] = 0.000688003
----------------------------------------

========================================
 Iteration # 7 @ LESSOPEN=| /usr/bin/lesspipe %s
========================================
TimeStep      [s] = 5e-06
CourantNumber [-] = 1.85695
RunTime       [s] = 4e-05
IterationTime [s] = 0.01
ExecutionTime [h] = 0
RemainingTime [h] = 0
----------------------------------------
ContinuityEq  [-] = 0.000497869
MomentumEq    [-] = 0.0013206
EnergyEq      [-] = 0.00068149
----------------------------------------

========================================
 Iteration # 8 @ LESSOPEN=| /usr/bin/lesspipe %s
========================================
TimeStep      [s] = 5e-06
CourantNumber [-] = 1.85695
RunTime       [s] = 4.5e-05
IterationTime [s] = 0.01
ExecutionTime [h] = 0
RemainingTime [h] = 0
----------------------------------------
ContinuityEq  [-] = 0.000501391
MomentumEq    [-] = 0.00136499
EnergyEq      [-] = 0.000685888
----------------------------------------

========================================
 Iteration # 9 @ LESSOPEN=| /usr/bin/lesspipe %s
========================================
TimeStep      [s] = 5e-06
CourantNumber [-] = 1.85695
RunTime       [s] = 5e-05
IterationTime [s] = 0.01
ExecutionTime [h] = 0
RemainingTime [h] = 0
----------------------------------------
ContinuityEq  [-] = 0.000505525
MomentumEq    [-] = 0.00139088
EnergyEq      [-] = 0.000690921
----------------------------------------

========================================
 Iteration # 10 @ LESSOPEN=| /usr/bin/lesspipe %s
========================================
TimeStep      [s] = 5e-06
CourantNumber [-] = 1.85695
RunTime       [s] = 5.5e-05
IterationTime [s] = 0.01
ExecutionTime [h] = 0
RemainingTime [h] = 0
----------------------------------------
ContinuityEq  [-] = 0.000508118
MomentumEq    [-] = 0.00140096
EnergyEq      [-] = 0.000694132
----------------------------------------

========================================
 Iteration # 11 @ LESSOPEN=| /usr/bin/lesspipe %s
========================================
TimeStep      [s] = 5e-06
CourantNumber [-] = 1.85695
RunTime       [s] = 6e-05
IterationTime [s] = 0.01
ExecutionTime [h] = 0
RemainingTime [h] = 0
----------------------------------------
ContinuityEq  [-] = 0.000509779
MomentumEq    [-] = 0.00139801
EnergyEq      [-] = 0.000696189
----------------------------------------

========================================
 Iteration # 12 @ LESSOPEN=| /usr/bin/lesspipe %s
========================================
TimeStep      [s] = 5e-06
CourantNumber [-] = 1.85694
RunTime       [s] = 6.5e-05
IterationTime [s] = 0.01
ExecutionTime [h] = 0
RemainingTime [h] = 0
----------------------------------------
ContinuityEq  [-] = 0.000510956
MomentumEq    [-] = 0.00138415
EnergyEq      [-] = 0.000696689
----------------------------------------

========================================
 Iteration # 13 @ LESSOPEN=| /usr/bin/lesspipe %s
========================================
TimeStep      [s] = 5e-06
CourantNumber [-] = 1.85693
RunTime       [s] = 7e-05
IterationTime [s] = 0.01
ExecutionTime [h] = 0
RemainingTime [h] = 0
----------------------------------------
ContinuityEq  [-] = 0.00052144
MomentumEq    [-] = 0.00136302
EnergyEq      [-] = 0.000707004
----------------------------------------

========================================
 Iteration # 14 @ LESSOPEN=| /usr/bin/lesspipe %s
========================================
TimeStep      [s] = 5e-06
CourantNumber [-] = 1.85692
RunTime       [s] = 7.5e-05
IterationTime [s] = 0.02
ExecutionTime [h] = 0
RemainingTime [h] = 0
----------------------------------------
ContinuityEq  [-] = 0.000529738
MomentumEq    [-] = 0.0013385
EnergyEq      [-] = 0.000718662
----------------------------------------

========================================
 Iteration # 15 @ LESSOPEN=| /usr/bin/lesspipe %s
========================================
TimeStep      [s] = 5e-06
CourantNumber [-] = 1.85689
RunTime       [s] = 8e-05
IterationTime [s] = 0.01
ExecutionTime [h] = 0
RemainingTime [h] = 0
----------------------------------------
ContinuityEq  [-] = 0.000534026
MomentumEq    [-] = 0.00131461
EnergyEq      [-] = 0.000725481
----------------------------------------

========================================
 Iteration # 16 @ LESSOPEN=| /usr/bin/lesspipe %s
========================================
TimeStep      [s] = 5e-06
CourantNumber [-] = 1.85683
RunTime       [s] = 8.5e-05
IterationTime [s] = 0.01
ExecutionTime [h] = 0
RemainingTime [h] = 0
----------------------------------------
ContinuityEq  [-] = 0.00053454
MomentumEq    [-] = 0.00129451
EnergyEq      [-] = 0.000726651
----------------------------------------

========================================
 Iteration # 17 @ LESSOPEN=| /usr/bin/lesspipe %s
========================================
TimeStep      [s] = 5e-06
CourantNumber [-] = 1.85673
RunTime       [s] = 9e-05
IterationTime [s] = 0.01
ExecutionTime [h] = 0
RemainingTime [h] = 0
----------------------------------------
ContinuityEq  [-] = 0.00053371
MomentumEq    [-] = 0.00127864
EnergyEq      [-] = 0.000726081
----------------------------------------

========================================
 Iteration # 18 @ LESSOPEN=| /usr/bin/lesspipe %s
========================================
TimeStep      [s] = 5e-06
CourantNumber [-] = 1.85657
RunTime       [s] = 9.5e-05
IterationTime [s] = 0.01
ExecutionTime [h] = 0.000277778
RemainingTime [h] = 0.102059
----------------------------------------
ContinuityEq  [-] = 0.000531552
MomentumEq    [-] = 0.00126559
EnergyEq      [-] = 0.000723393
----------------------------------------

========================================
 Iteration # 19 @ LESSOPEN=| /usr/bin/lesspipe %s
========================================
TimeStep      [s] = 5e-06
CourantNumber [-] = 1.85632
RunTime       [s] = 0.0001
IterationTime [s] = 0.01
ExecutionTime [h] = 0.000277778
RemainingTime [h] = 0.0969425
----------------------------------------
ContinuityEq  [-] = 0.000529995
MomentumEq    [-] = 0.00125653
EnergyEq      [-] = 0.000722149
----------------------------------------

========================================
 Iteration # 20 @ LESSOPEN=| /usr/bin/lesspipe %s
========================================
TimeStep      [s] = 5e-06
CourantNumber [-] = 1.85594
RunTime       [s] = 0.000105
IterationTime [s] = 0.01
ExecutionTime [h] = 0.000277778
RemainingTime [h] = 0.092313
----------------------------------------
ContinuityEq  [-] = 0.000527521
MomentumEq    [-] = 0.00124909
EnergyEq      [-] = 0.000719705
----------------------------------------

========================================
 Iteration # 21 @ LESSOPEN=| /usr/bin/lesspipe %s
========================================
TimeStep      [s] = 5e-06
CourantNumber [-] = 1.85542
RunTime       [s] = 0.00011
IterationTime [s] = 0.01
ExecutionTime [h] = 0.000277778
RemainingTime [h] = 0.0881043
----------------------------------------
ContinuityEq  [-] = 0.000526536
MomentumEq    [-] = 0.00124089
EnergyEq      [-] = 0.000718975
----------------------------------------

========================================
 Iteration # 22 @ LESSOPEN=| /usr/bin/lesspipe %s
========================================
TimeStep      [s] = 5e-06
CourantNumber [-] = 1.85472
RunTime       [s] = 0.000115
IterationTime [s] = 0.01
ExecutionTime [h] = 0.000277778
RemainingTime [h] = 0.0842616
----------------------------------------
ContinuityEq  [-] = 0.000525882
MomentumEq    [-] = 0.00123272
EnergyEq      [-] = 0.000717964
----------------------------------------

========================================
 Iteration # 23 @ LESSOPEN=| /usr/bin/lesspipe %s
========================================
TimeStep      [s] = 5e-06
CourantNumber [-] = 1.85384
RunTime       [s] = 0.00012
IterationTime [s] = 0.01
ExecutionTime [h] = 0.000277778
RemainingTime [h] = 0.0807391
----------------------------------------
ContinuityEq  [-] = 0.000523296
MomentumEq    [-] = 0.00122556
EnergyEq      [-] = 0.000714211
----------------------------------------

========================================
 Iteration # 24 @ LESSOPEN=| /usr/bin/lesspipe %s
========================================
TimeStep      [s] = 5e-06
CourantNumber [-] = 1.85279
RunTime       [s] = 0.000125
IterationTime [s] = 0.01
ExecutionTime [h] = 0.000277778
RemainingTime [h] = 0.0774985
----------------------------------------
ContinuityEq  [-] = 0.000518677
MomentumEq    [-] = 0.00121868
EnergyEq      [-] = 0.000708078
----------------------------------------

========================================
 Iteration # 25 @ LESSOPEN=| /usr/bin/lesspipe %s
========================================
TimeStep      [s] = 5e-06
CourantNumber [-] = 1.8516
RunTime       [s] = 0.00013
IterationTime [s] = 0.01
ExecutionTime [h] = 0.000277778
RemainingTime [h] = 0.0745071
----------------------------------------
ContinuityEq  [-] = 0.000513178
MomentumEq    [-] = 0.001213
EnergyEq      [-] = 0.000701329
----------------------------------------

========================================
 Iteration # 26 @ LESSOPEN=| /usr/bin/lesspipe %s
========================================
TimeStep      [s] = 5e-06
CourantNumber [-] = 1.85032
RunTime       [s] = 0.000135
IterationTime [s] = 0.01
ExecutionTime [h] = 0.000277778
RemainingTime [h] = 0.0717372
----------------------------------------
ContinuityEq  [-] = 0.000507838
MomentumEq    [-] = 0.00120725
EnergyEq      [-] = 0.000694708
----------------------------------------

========================================
 Iteration # 27 @ LESSOPEN=| /usr/bin/lesspipe %s
========================================
TimeStep      [s] = 5e-06
CourantNumber [-] = 1.849
RunTime       [s] = 0.00014
IterationTime [s] = 0.01
ExecutionTime [h] = 0.000277778
RemainingTime [h] = 0.0691653
----------------------------------------
ContinuityEq  [-] = 0.000502818
MomentumEq    [-] = 0.0012012
EnergyEq      [-] = 0.00068859
----------------------------------------

========================================
 Iteration # 28 @ LESSOPEN=| /usr/bin/lesspipe %s
========================================
TimeStep      [s] = 5e-06
CourantNumber [-] = 1.8477
RunTime       [s] = 0.000145
IterationTime [s] = 0.01
ExecutionTime [h] = 0.000277778
RemainingTime [h] = 0.0667707
----------------------------------------
ContinuityEq  [-] = 0.000497613
MomentumEq    [-] = 0.00119263
EnergyEq      [-] = 0.000681695
----------------------------------------

========================================
 Iteration # 29 @ LESSOPEN=| /usr/bin/lesspipe %s
========================================
TimeStep      [s] = 5e-06
CourantNumber [-] = 1.84646
RunTime       [s] = 0.00015
IterationTime [s] = 0.01
ExecutionTime [h] = 0.000277778
RemainingTime [h] = 0.0645357
----------------------------------------
ContinuityEq  [-] = 0.000490963
MomentumEq    [-] = 0.00118164
EnergyEq      [-] = 0.000673908
----------------------------------------

========================================
 Iteration # 30 @ LESSOPEN=| /usr/bin/lesspipe %s
========================================
TimeStep      [s] = 5e-06
CourantNumber [-] = 1.84533
RunTime       [s] = 0.000155
IterationTime [s] = 0.01
ExecutionTime [h] = 0.000277778
RemainingTime [h] = 0.062445
----------------------------------------
ContinuityEq  [-] = 0.000483492
MomentumEq    [-] = 0.00116638
EnergyEq      [-] = 0.000664514
----------------------------------------

========================================
 Iteration # 31 @ LESSOPEN=| /usr/bin/lesspipe %s
========================================
TimeStep      [s] = 5e-06
CourantNumber [-] = 1.84431
RunTime       [s] = 0.00016
IterationTime [s] = 0.02
ExecutionTime [h] = 0.000277778
RemainingTime [h] = 0.0604849
----------------------------------------
ContinuityEq  [-] = 0.000474758
MomentumEq    [-] = 0.00114726
EnergyEq      [-] = 0.000653439
----------------------------------------

========================================
 Iteration # 32 @ LESSOPEN=| /usr/bin/lesspipe %s
========================================
TimeStep      [s] = 5e-06
CourantNumber [-] = 1.84342
RunTime       [s] = 0.000165
IterationTime [s] = 0.01
ExecutionTime [h] = 0.000277778
RemainingTime [h] = 0.0586436
----------------------------------------
ContinuityEq  [-] = 0.000464864
MomentumEq    [-] = 0.00112534
EnergyEq      [-] = 0.000640007
----------------------------------------

========================================
 Iteration # 33 @ LESSOPEN=| /usr/bin/lesspipe %s
========================================
TimeStep      [s] = 5e-06
CourantNumber [-] = 1.84266
RunTime       [s] = 0.00017
IterationTime [s] = 0.01
ExecutionTime [h] = 0.000277778
RemainingTime [h] = 0.0569106
----------------------------------------
ContinuityEq  [-] = 0.000453322
MomentumEq    [-] = 0.00110237
EnergyEq      [-] = 0.000624375
----------------------------------------

========================================
 Iteration # 34 @ LESSOPEN=| /usr/bin/lesspipe %s
========================================
TimeStep      [s] = 5e-06
CourantNumber [-] = 1.84201
RunTime       [s] = 0.000175
IterationTime [s] = 0.01
ExecutionTime [h] = 0.000277778
RemainingTime [h] = 0.0552767
----------------------------------------
ContinuityEq  [-] = 0.000440744
MomentumEq    [-] = 0.00107856
EnergyEq      [-] = 0.000607594
----------------------------------------

========================================
 Iteration # 35 @ LESSOPEN=| /usr/bin/lesspipe %s
========================================
TimeStep      [s] = 5e-06
CourantNumber [-] = 1.84145
RunTime       [s] = 0.00018
IterationTime [s] = 0.01
ExecutionTime [h] = 0.000277778
RemainingTime [h] = 0.0537335
----------------------------------------
ContinuityEq  [-] = 0.000427856
MomentumEq    [-] = 0.00105405
EnergyEq      [-] = 0.00059096
----------------------------------------

========================================
 Iteration # 36 @ LESSOPEN=| /usr/bin/lesspipe %s
========================================
TimeStep      [s] = 5e-06
CourantNumber [-] = 1.84101
RunTime       [s] = 0.000185
IterationTime [s] = 0.01
ExecutionTime [h] = 0.000277778
RemainingTime [h] = 0.0522737
----------------------------------------
ContinuityEq  [-] = 0.00041484
MomentumEq    [-] = 0.0010284
EnergyEq      [-] = 0.000574697
----------------------------------------

========================================
 Iteration # 37 @ LESSOPEN=| /usr/bin/lesspipe %s
========================================
TimeStep      [s] = 5e-06
CourantNumber [-] = 1.84067
RunTime       [s] = 0.00019
IterationTime [s] = 0.01
ExecutionTime [h] = 0.000277778
RemainingTime [h] = 0.0508908
----------------------------------------
ContinuityEq  [-] = 0.000402308
MomentumEq    [-] = 0.00100149
EnergyEq      [-] = 0.000558566
----------------------------------------

========================================
 Iteration # 38 @ LESSOPEN=| /usr/bin/lesspipe %s
========================================
TimeStep      [s] = 5e-06
CourantNumber [-] = 1.84041
RunTime       [s] = 0.000195
IterationTime [s] = 0.02
ExecutionTime [h] = 0.000277778
RemainingTime [h] = 0.0495788
----------------------------------------
ContinuityEq  [-] = 0.000389774
MomentumEq    [-] = 0.000974417
EnergyEq      [-] = 0.000541924
----------------------------------------

========================================
 Iteration # 39 @ LESSOPEN=| /usr/bin/lesspipe %s
========================================
TimeStep      [s] = 5e-06
CourantNumber [-] = 1.84023
RunTime       [s] = 0.0002
IterationTime [s] = 0.01
ExecutionTime [h] = 0.000277778
RemainingTime [h] = 0.0483324
----------------------------------------
ContinuityEq  [-] = 0.000377809
MomentumEq    [-] = 0.000947864
EnergyEq      [-] = 0.000525919
----------------------------------------

========================================
 Iteration # 40 @ LESSOPEN=| /usr/bin/lesspipe %s
========================================
TimeStep      [s] = 5e-06
CourantNumber [-] = 1.8401
RunTime       [s] = 0.000205
IterationTime [s] = 0.01
ExecutionTime [h] = 0.000277778
RemainingTime [h] = 0.0471468
----------------------------------------
ContinuityEq  [-] = 0.000366035
MomentumEq    [-] = 0.000921311
EnergyEq      [-] = 0.000509716
----------------------------------------

========================================
 Iteration # 41 @ LESSOPEN=| /usr/bin/lesspipe %s
========================================
TimeStep      [s] = 5e-06
CourantNumber [-] = 1.84004
RunTime       [s] = 0.00021
IterationTime [s] = 0.01
ExecutionTime [h] = 0.000277778
RemainingTime [h] = 0.0460176
----------------------------------------
ContinuityEq  [-] = 0.000354514
MomentumEq    [-] = 0.000894991
EnergyEq      [-] = 0.000493881
----------------------------------------

========================================
 Iteration # 42 @ LESSOPEN=| /usr/bin/lesspipe %s
========================================
TimeStep      [s] = 5e-06
CourantNumber [-] = 1.84002
RunTime       [s] = 0.000215
IterationTime [s] = 0.01
ExecutionTime [h] = 0.000277778
RemainingTime [h] = 0.044941
----------------------------------------
ContinuityEq  [-] = 0.000343092
MomentumEq    [-] = 0.000869255
EnergyEq      [-] = 0.000478383
----------------------------------------

========================================
 Iteration # 43 @ LESSOPEN=| /usr/bin/lesspipe %s
========================================
TimeStep      [s] = 5e-06
CourantNumber [-] = 1.84005
RunTime       [s] = 0.00022
IterationTime [s] = 0.02
ExecutionTime [h] = 0.000277778
RemainingTime [h] = 0.0439133
----------------------------------------
ContinuityEq  [-] = 0.000331545
MomentumEq    [-] = 0.000844538
EnergyEq      [-] = 0.000463002
----------------------------------------

========================================
 Iteration # 44 @ LESSOPEN=| /usr/bin/lesspipe %s
========================================
TimeStep      [s] = 5e-06
CourantNumber [-] = 1.84012
RunTime       [s] = 0.000225
IterationTime [s] = 0.01
ExecutionTime [h] = 0.000277778
RemainingTime [h] = 0.0429312
----------------------------------------
ContinuityEq  [-] = 0.00032012
MomentumEq    [-] = 0.000820871
EnergyEq      [-] = 0.00044834
----------------------------------------

========================================
 Iteration # 45 @ LESSOPEN=| /usr/bin/lesspipe %s
========================================
TimeStep      [s] = 5e-06
CourantNumber [-] = 1.84047
RunTime       [s] = 0.00023
IterationTime [s] = 0.01
ExecutionTime [h] = 0.000277778
RemainingTime [h] = 0.0419919
----------------------------------------
ContinuityEq  [-] = 0.00030909
MomentumEq    [-] = 0.000798203
EnergyEq      [-] = 0.000434176
----------------------------------------

========================================
 Iteration # 46 @ LESSOPEN=| /usr/bin/lesspipe %s
========================================
TimeStep      [s] = 5e-06
CourantNumber [-] = 1.84126
RunTime       [s] = 0.000235
IterationTime [s] = 0.01
ExecutionTime [h] = 0.000277778
RemainingTime [h] = 0.0410926
----------------------------------------
ContinuityEq  [-] = 0.000299152
MomentumEq    [-] = 0.000777524
EnergyEq      [-] = 0.000421035
----------------------------------------

========================================
 Iteration # 47 @ LESSOPEN=| /usr/bin/lesspipe %s
========================================
TimeStep      [s] = 5e-06
CourantNumber [-] = 1.84203
RunTime       [s] = 0.00024
IterationTime [s] = 0.01
ExecutionTime [h] = 0.000277778
RemainingTime [h] = 0.0402307
----------------------------------------
ContinuityEq  [-] = 0.000290772
MomentumEq    [-] = 0.000758831
EnergyEq      [-] = 0.000409864
----------------------------------------

========================================
 Iteration # 48 @ LESSOPEN=| /usr/bin/lesspipe %s
========================================
TimeStep      [s] = 5e-06
CourantNumber [-] = 1.84278
RunTime       [s] = 0.000245
IterationTime [s] = 0.01
ExecutionTime [h] = 0.000277778
RemainingTime [h] = 0.039404
----------------------------------------
ContinuityEq  [-] = 0.000283921
MomentumEq    [-] = 0.000741908
EnergyEq      [-] = 0.000400675
----------------------------------------

========================================
 Iteration # 49 @ LESSOPEN=| /usr/bin/lesspipe %s
========================================
TimeStep      [s] = 5e-06
CourantNumber [-] = 1.8435
RunTime       [s] = 0.00025
IterationTime [s] = 0.01
ExecutionTime [h] = 0.000277778
RemainingTime [h] = 0.0386103
----------------------------------------
ContinuityEq  [-] = 0.00027747
MomentumEq    [-] = 0.000726209
EnergyEq      [-] = 0.00039168
----------------------------------------

========================================
 Iteration # 50 @ LESSOPEN=| /usr/bin/lesspipe %s
========================================
TimeStep      [s] = 5e-06
CourantNumber [-] = 1.8442
RunTime       [s] = 0.000255
IterationTime [s] = 0.02
ExecutionTime [h] = 0.000277778
RemainingTime [h] = 0.0378478
----------------------------------------
ContinuityEq  [-] = 0.000271667
MomentumEq    [-] = 0.000712196
EnergyEq      [-] = 0.00038385
----------------------------------------

========================================
 Iteration # 51 @ LESSOPEN=| /usr/bin/lesspipe %s
========================================
TimeStep      [s] = 5e-06
CourantNumber [-] = 1.84489
RunTime       [s] = 0.00026
IterationTime [s] = 0.01
ExecutionTime [h] = 0.000277778
RemainingTime [h] = 0.0371146
----------------------------------------
ContinuityEq  [-] = 0.000266128
MomentumEq    [-] = 0.000699487
EnergyEq      [-] = 0.000376684
----------------------------------------

========================================
 Iteration # 52 @ LESSOPEN=| /usr/bin/lesspipe %s
========================================
TimeStep      [s] = 5e-06
CourantNumber [-] = 1.84558
RunTime       [s] = 0.000265
IterationTime [s] = 0.01
ExecutionTime [h] = 0.000277778
RemainingTime [h] = 0.0364091
----------------------------------------
ContinuityEq  [-] = 0.000260927
MomentumEq    [-] = 0.000687661
EnergyEq      [-] = 0.000370041
----------------------------------------

========================================
 Iteration # 53 @ LESSOPEN=| /usr/bin/lesspipe %s
========================================
TimeStep      [s] = 5e-06
CourantNumber [-] = 1.84629
RunTime       [s] = 0.00027
IterationTime [s] = 0.01
ExecutionTime [h] = 0.000277778
RemainingTime [h] = 0.0357297
----------------------------------------
ContinuityEq  [-] = 0.00025606
MomentumEq    [-] = 0.000676658
EnergyEq      [-] = 0.000363898
----------------------------------------

========================================
 Iteration # 54 @ LESSOPEN=| /usr/bin/lesspipe %s
========================================
TimeStep      [s] = 5e-06
CourantNumber [-] = 1.847
RunTime       [s] = 0.000275
IterationTime [s] = 0.01
ExecutionTime [h] = 0.000277778
RemainingTime [h] = 0.0350751
----------------------------------------
ContinuityEq  [-] = 0.000251517
MomentumEq    [-] = 0.000666313
EnergyEq      [-] = 0.000357682
----------------------------------------

========================================
 Iteration # 55 @ LESSOPEN=| /usr/bin/lesspipe %s
========================================
TimeStep      [s] = 5e-06
CourantNumber [-] = 1.84773
RunTime       [s] = 0.00028
IterationTime [s] = 0.01
ExecutionTime [h] = 0.000277778
RemainingTime [h] = 0.0344438
----------------------------------------
ContinuityEq  [-] = 0.000247509
MomentumEq    [-] = 0.000657012
EnergyEq      [-] = 0.000352151
----------------------------------------

========================================
 Iteration # 56 @ LESSOPEN=| /usr/bin/lesspipe %s
========================================
TimeStep      [s] = 5e-06
CourantNumber [-] = 1.84849
RunTime       [s] = 0.000285
IterationTime [s] = 0.01
ExecutionTime [h] = 0.000277778
RemainingTime [h] = 0.0338346
----------------------------------------
ContinuityEq  [-] = 0.000243972
MomentumEq    [-] = 0.000648633
EnergyEq      [-] = 0.000347428
----------------------------------------

========================================
 Iteration # 57 @ LESSOPEN=| /usr/bin/lesspipe %s
========================================
TimeStep      [s] = 5e-06
CourantNumber [-] = 1.84926
RunTime       [s] = 0.00029
IterationTime [s] = 0.02
ExecutionTime [h] = 0.000277778
RemainingTime [h] = 0.0332465
----------------------------------------
ContinuityEq  [-] = 0.000240859
MomentumEq    [-] = 0.000640906
EnergyEq      [-] = 0.000343063
----------------------------------------

========================================
 Iteration # 58 @ LESSOPEN=| /usr/bin/lesspipe %s
========================================
TimeStep      [s] = 5e-06
CourantNumber [-] = 1.85004
RunTime       [s] = 0.000295
IterationTime [s] = 0.01
ExecutionTime [h] = 0.000277778
RemainingTime [h] = 0.0326783
----------------------------------------
ContinuityEq  [-] = 0.000238218
MomentumEq    [-] = 0.000634566
EnergyEq      [-] = 0.000339355
----------------------------------------

========================================
 Iteration # 59 @ LESSOPEN=| /usr/bin/lesspipe %s
========================================
TimeStep      [s] = 5e-06
CourantNumber [-] = 1.85081
RunTime       [s] = 0.0003
IterationTime [s] = 0.01
ExecutionTime [h] = 0.000277778
RemainingTime [h] = 0.032129
----------------------------------------
ContinuityEq  [-] = 0.000236488
MomentumEq    [-] = 0.000629927
EnergyEq      [-] = 0.000337717
----------------------------------------

========================================
 Iteration # 60 @ LESSOPEN=| /usr/bin/lesspipe %s
========================================
TimeStep      [s] = 5e-06
CourantNumber [-] = 1.85159
RunTime       [s] = 0.000305
IterationTime [s] = 0.01
ExecutionTime [h] = 0.000277778
RemainingTime [h] = 0.0315977
----------------------------------------
ContinuityEq  [-] = 0.000235899
MomentumEq    [-] = 0.00062552
EnergyEq      [-] = 0.000337074
----------------------------------------

========================================
 Iteration # 61 @ LESSOPEN=| /usr/bin/lesspipe %s
========================================
TimeStep      [s] = 5e-06
CourantNumber [-] = 1.85239
RunTime       [s] = 0.00031
IterationTime [s] = 0.01
ExecutionTime [h] = 0.000277778
RemainingTime [h] = 0.0310836
----------------------------------------
ContinuityEq  [-] = 0.000235221
MomentumEq    [-] = 0.000620944
EnergyEq      [-] = 0.000336065
----------------------------------------

========================================
 Iteration # 62 @ LESSOPEN=| /usr/bin/lesspipe %s
========================================
TimeStep      [s] = 5e-06
CourantNumber [-] = 1.85322
RunTime       [s] = 0.000315
IterationTime [s] = 0.02
ExecutionTime [h] = 0.000277778
RemainingTime [h] = 0.0305858
----------------------------------------
ContinuityEq  [-] = 0.000234458
MomentumEq    [-] = 0.000616489
EnergyEq      [-] = 0.000334972
----------------------------------------

========================================
 Iteration # 63 @ LESSOPEN=| /usr/bin/lesspipe %s
========================================
TimeStep      [s] = 5e-06
CourantNumber [-] = 1.85408
RunTime       [s] = 0.00032
IterationTime [s] = 0
ExecutionTime [h] = 0.000277778
RemainingTime [h] = 0.0301036
----------------------------------------
ContinuityEq  [-] = 0.000233479
MomentumEq    [-] = 0.000612159
EnergyEq      [-] = 0.000333702
----------------------------------------

========================================
 Iteration # 64 @ LESSOPEN=| /usr/bin/lesspipe %s
========================================
TimeStep      [s] = 5e-06
CourantNumber [-] = 1.85497
RunTime       [s] = 0.000325
IterationTime [s] = 0.02
ExecutionTime [h] = 0.000277778
RemainingTime [h] = 0.0296362
----------------------------------------
ContinuityEq  [-] = 0.000232473
MomentumEq    [-] = 0.000607755
EnergyEq      [-] = 0.000332362
----------------------------------------

========================================
 Iteration # 65 @ LESSOPEN=| /usr/bin/lesspipe %s
========================================
TimeStep      [s] = 5e-06
CourantNumber [-] = 1.85587
RunTime       [s] = 0.00033
IterationTime [s] = 0.01
ExecutionTime [h] = 0.000277778
RemainingTime [h] = 0.0291829
----------------------------------------
ContinuityEq  [-] = 0.000231651
MomentumEq    [-] = 0.000602934
EnergyEq      [-] = 0.000331099
----------------------------------------

========================================
 Iteration # 66 @ LESSOPEN=| /usr/bin/lesspipe %s
========================================
TimeStep      [s] = 5e-06
CourantNumber [-] = 1.85677
RunTime       [s] = 0.000335
IterationTime [s] = 0.01
ExecutionTime [h] = 0.000277778
RemainingTime [h] = 0.0287432
----------------------------------------
ContinuityEq  [-] = 0.000230665
MomentumEq    [-] = 0.000598054
EnergyEq      [-] = 0.000329752
----------------------------------------

========================================
 Iteration # 67 @ LESSOPEN=| /usr/bin/lesspipe %s
========================================
TimeStep      [s] = 5e-06
CourantNumber [-] = 1.85768
RunTime       [s] = 0.00034
IterationTime [s] = 0.01
ExecutionTime [h] = 0.000277778
RemainingTime [h] = 0.0283164
----------------------------------------
ContinuityEq  [-] = 0.000229853
MomentumEq    [-] = 0.000594083
EnergyEq      [-] = 0.000328916
----------------------------------------

========================================
 Iteration # 68 @ LESSOPEN=| /usr/bin/lesspipe %s
========================================
TimeStep      [s] = 5e-06
CourantNumber [-] = 1.85858
RunTime       [s] = 0.000345
IterationTime [s] = 0.01
ExecutionTime [h] = 0.000277778
RemainingTime [h] = 0.027902
----------------------------------------
ContinuityEq  [-] = 0.000229085
MomentumEq    [-] = 0.000590602
EnergyEq      [-] = 0.000327945
----------------------------------------

========================================
 Iteration # 69 @ LESSOPEN=| /usr/bin/lesspipe %s
========================================
TimeStep      [s] = 5e-06
CourantNumber [-] = 1.85949
RunTime       [s] = 0.00035
IterationTime [s] = 0.02
ExecutionTime [h] = 0.000277778
RemainingTime [h] = 0.0274995
----------------------------------------
ContinuityEq  [-] = 0.000228167
MomentumEq    [-] = 0.000587337
EnergyEq      [-] = 0.000326421
----------------------------------------

========================================
 Iteration # 70 @ LESSOPEN=| /usr/bin/lesspipe %s
========================================
TimeStep      [s] = 5e-06
CourantNumber [-] = 1.86041
RunTime       [s] = 0.000355
IterationTime [s] = 0.01
ExecutionTime [h] = 0.000277778
RemainingTime [h] = 0.0271082
----------------------------------------
ContinuityEq  [-] = 0.000227311
MomentumEq    [-] = 0.000584087
EnergyEq      [-] = 0.000325075
----------------------------------------

========================================
 Iteration # 71 @ LESSOPEN=| /usr/bin/lesspipe %s
========================================
TimeStep      [s] = 5e-06
CourantNumber [-] = 1.86133
RunTime       [s] = 0.00036
IterationTime [s] = 0.01
ExecutionTime [h] = 0.000277778
RemainingTime [h] = 0.0267279
----------------------------------------
ContinuityEq  [-] = 0.000226181
MomentumEq    [-] = 0.000581211
EnergyEq      [-] = 0.000323547
----------------------------------------

========================================
 Iteration # 72 @ LESSOPEN=| /usr/bin/lesspipe %s
========================================
TimeStep      [s] = 5e-06
CourantNumber [-] = 1.86226
RunTime       [s] = 0.000365
IterationTime [s] = 0.01
ExecutionTime [h] = 0.000277778
RemainingTime [h] = 0.0263579
----------------------------------------
ContinuityEq  [-] = 0.000224905
MomentumEq    [-] = 0.000578797
EnergyEq      [-] = 0.000321916
----------------------------------------

========================================
 Iteration # 73 @ LESSOPEN=| /usr/bin/lesspipe %s
========================================
TimeStep      [s] = 5e-06
CourantNumber [-] = 1.86322
RunTime       [s] = 0.00037
IterationTime [s] = 0.01
ExecutionTime [h] = 0.000277778
RemainingTime [h] = 0.025998
----------------------------------------
ContinuityEq  [-] = 0.000224001
MomentumEq    [-] = 0.000576637
EnergyEq      [-] = 0.000320704
----------------------------------------

========================================
 Iteration # 74 @ LESSOPEN=| /usr/bin/lesspipe %s
========================================
TimeStep      [s] = 5e-06
CourantNumber [-] = 1.8642
RunTime       [s] = 0.000375
IterationTime [s] = 0.01
ExecutionTime [h] = 0.000277778
RemainingTime [h] = 0.0256476
----------------------------------------
ContinuityEq  [-] = 0.000223438
MomentumEq    [-] = 0.000574585
EnergyEq      [-] = 0.000319927
----------------------------------------

========================================
 Iteration # 75 @ LESSOPEN=| /usr/bin/lesspipe %s
========================================
TimeStep      [s] = 5e-06
CourantNumber [-] = 1.86521
RunTime       [s] = 0.00038
IterationTime [s] = 0.01
ExecutionTime [h] = 0.000277778
RemainingTime [h] = 0.0253065
----------------------------------------
ContinuityEq  [-] = 0.000223016
MomentumEq    [-] = 0.000572324
EnergyEq      [-] = 0.000319394
----------------------------------------

========================================
 Iteration # 76 @ LESSOPEN=| /usr/bin/lesspipe %s
========================================
TimeStep      [s] = 5e-06
CourantNumber [-] = 1.86625
RunTime       [s] = 0.000385
IterationTime [s] = 0.02
ExecutionTime [h] = 0.000277778
RemainingTime [h] = 0.0249742
----------------------------------------
ContinuityEq  [-] = 0.000222631
MomentumEq    [-] = 0.000569498
EnergyEq      [-] = 0.000318747
----------------------------------------

========================================
 Iteration # 77 @ LESSOPEN=| /usr/bin/lesspipe %s
========================================
TimeStep      [s] = 5e-06
CourantNumber [-] = 1.86732
RunTime       [s] = 0.00039
IterationTime [s] = 0.01
ExecutionTime [h] = 0.000277778
RemainingTime [h] = 0.0246505
----------------------------------------
ContinuityEq  [-] = 0.000222107
MomentumEq    [-] = 0.000566383
EnergyEq      [-] = 0.000317803
----------------------------------------

========================================
 Iteration # 78 @ LESSOPEN=| /usr/bin/lesspipe %s
========================================
TimeStep      [s] = 5e-06
CourantNumber [-] = 1.86843
RunTime       [s] = 0.000395
IterationTime [s] = 0.01
ExecutionTime [h] = 0.000277778
RemainingTime [h] = 0.024335
----------------------------------------
ContinuityEq  [-] = 0.00022136
MomentumEq    [-] = 0.000563416
EnergyEq      [-] = 0.000316523
----------------------------------------

========================================
 Iteration # 79 @ LESSOPEN=| /usr/bin/lesspipe %s
========================================
TimeStep      [s] = 5e-06
CourantNumber [-] = 1.86958
RunTime       [s] = 0.0004
IterationTime [s] = 0.01
ExecutionTime [h] = 0.000277778
RemainingTime [h] = 0.0240273
----------------------------------------
ContinuityEq  [-] = 0.000220331
MomentumEq    [-] = 0.000560547
EnergyEq      [-] = 0.0003152
----------------------------------------

========================================
 Iteration # 80 @ LESSOPEN=| /usr/bin/lesspipe %s
========================================
TimeStep      [s] = 5e-06
CourantNumber [-] = 1.87077
RunTime       [s] = 0.000405
IterationTime [s] = 0.01
ExecutionTime [h] = 0.000277778
RemainingTime [h] = 0.0237272
----------------------------------------
ContinuityEq  [-] = 0.00021915
MomentumEq    [-] = 0.000557633
EnergyEq      [-] = 0.000313691
----------------------------------------

========================================
 Iteration # 81 @ LESSOPEN=| /usr/bin/lesspipe %s
========================================
TimeStep      [s] = 5e-06
CourantNumber [-] = 1.87199
RunTime       [s] = 0.00041
IterationTime [s] = 0.01
ExecutionTime [h] = 0.000277778
RemainingTime [h] = 0.0234345
----------------------------------------
ContinuityEq  [-] = 0.000217962
MomentumEq    [-] = 0.000554567
EnergyEq      [-] = 0.000312033
----------------------------------------

========================================
 Iteration # 82 @ LESSOPEN=| /usr/bin/lesspipe %s
========================================
TimeStep      [s] = 5e-06
CourantNumber [-] = 1.87325
RunTime       [s] = 0.000415
IterationTime [s] = 0.01
ExecutionTime [h] = 0.000277778
RemainingTime [h] = 0.0231488
----------------------------------------
ContinuityEq  [-] = 0.000216845
MomentumEq    [-] = 0.000551461
EnergyEq      [-] = 0.000310247
----------------------------------------

========================================
 Iteration # 83 @ LESSOPEN=| /usr/bin/lesspipe %s
========================================
TimeStep      [s] = 5e-06
CourantNumber [-] = 1.87455
RunTime       [s] = 0.00042
IterationTime [s] = 0.02
ExecutionTime [h] = 0.000277778
RemainingTime [h] = 0.0228699
----------------------------------------
ContinuityEq  [-] = 0.000215685
MomentumEq    [-] = 0.000548222
EnergyEq      [-] = 0.000308585
----------------------------------------

========================================
 Iteration # 84 @ LESSOPEN=| /usr/bin/lesspipe %s
========================================
TimeStep      [s] = 5e-06
CourantNumber [-] = 1.87587
RunTime       [s] = 0.000425
IterationTime [s] = 0.01
ExecutionTime [h] = 0.000277778
RemainingTime [h] = 0.0225976
----------------------------------------
ContinuityEq  [-] = 0.000214618
MomentumEq    [-] = 0.000544797
EnergyEq      [-] = 0.000307117
----------------------------------------

========================================
 Iteration # 85 @ LESSOPEN=| /usr/bin/lesspipe %s
========================================
TimeStep      [s] = 5e-06
CourantNumber [-] = 1.87722
RunTime       [s] = 0.00043
IterationTime [s] = 0.01
ExecutionTime [h] = 0.000277778
RemainingTime [h] = 0.0223316
----------------------------------------
ContinuityEq  [-] = 0.000213526
MomentumEq    [-] = 0.00054102
EnergyEq      [-] = 0.000305624
----------------------------------------

========================================
 Iteration # 86 @ LESSOPEN=| /usr/bin/lesspipe %s
========================================
TimeStep      [s] = 5e-06
CourantNumber [-] = 1.87859
RunTime       [s] = 0.000435
IterationTime [s] = 0.01
ExecutionTime [h] = 0.000277778
RemainingTime [h] = 0.0220717
----------------------------------------
ContinuityEq  [-] = 0.000212409
MomentumEq    [-] = 0.000537025
EnergyEq      [-] = 0.000303998
----------------------------------------

========================================
 Iteration # 87 @ LESSOPEN=| /usr/bin/lesspipe %s
========================================
TimeStep      [s] = 5e-06
CourantNumber [-] = 1.87997
RunTime       [s] = 0.00044
IterationTime [s] = 0.01
ExecutionTime [h] = 0.000277778
RemainingTime [h] = 0.0218177
----------------------------------------
ContinuityEq  [-] = 0.000211157
MomentumEq    [-] = 0.000533203
EnergyEq      [-] = 0.000302363
----------------------------------------

========================================
 Iteration # 88 @ LESSOPEN=| /usr/bin/lesspipe %s
========================================
TimeStep      [s] = 5e-06
CourantNumber [-] = 1.88134
RunTime       [s] = 0.000445
IterationTime [s] = 0.02
ExecutionTime [h] = 0.000277778
RemainingTime [h] = 0.0215695
----------------------------------------
ContinuityEq  [-] = 0.000209929
MomentumEq    [-] = 0.000529498
EnergyEq      [-] = 0.00030087
----------------------------------------

========================================
 Iteration # 89 @ LESSOPEN=| /usr/bin/lesspipe %s
========================================
TimeStep      [s] = 5e-06
CourantNumber [-] = 1.88269
RunTime       [s] = 0.00045
IterationTime [s] = 0.01
ExecutionTime [h] = 0.000277778
RemainingTime [h] = 0.0213267
----------------------------------------
ContinuityEq  [-] = 0.000208703
MomentumEq    [-] = 0.000525939
EnergyEq      [-] = 0.000299229
----------------------------------------

========================================
 Iteration # 90 @ LESSOPEN=| /usr/bin/lesspipe %s
========================================
TimeStep      [s] = 5e-06
CourantNumber [-] = 1.88401
RunTime       [s] = 0.000455
IterationTime [s] = 0.02
ExecutionTime [h] = 0.000277778
RemainingTime [h] = 0.0210893
----------------------------------------
ContinuityEq  [-] = 0.000207604
MomentumEq    [-] = 0.000522532
EnergyEq      [-] = 0.000297659
----------------------------------------

========================================
 Iteration # 91 @ LESSOPEN=| /usr/bin/lesspipe %s
========================================
TimeStep      [s] = 5e-06
CourantNumber [-] = 1.88529
RunTime       [s] = 0.00046
IterationTime [s] = 0.01
ExecutionTime [h] = 0.000277778
RemainingTime [h] = 0.0208571
----------------------------------------
ContinuityEq  [-] = 0.000206576
MomentumEq    [-] = 0.000519597
EnergyEq      [-] = 0.000296161
----------------------------------------

========================================
 Iteration # 92 @ LESSOPEN=| /usr/bin/lesspipe %s
========================================
TimeStep      [s] = 5e-06
CourantNumber [-] = 1.88651
RunTime       [s] = 0.000465
IterationTime [s] = 0.01
ExecutionTime [h] = 0.000277778
RemainingTime [h] = 0.0206298
----------------------------------------
ContinuityEq  [-] = 0.000205662
MomentumEq    [-] = 0.000516809
EnergyEq      [-] = 0.00029495
----------------------------------------

========================================
 Iteration # 93 @ LESSOPEN=| /usr/bin/lesspipe %s
========================================
TimeStep      [s] = 5e-06
CourantNumber [-] = 1.88767
RunTime       [s] = 0.00047
IterationTime [s] = 0.01
ExecutionTime [h] = 0.000277778
RemainingTime [h] = 0.0204074
----------------------------------------
ContinuityEq  [-] = 0.000204757
MomentumEq    [-] = 0.00051384
EnergyEq      [-] = 0.000293704
----------------------------------------

========================================
 Iteration # 94 @ LESSOPEN=| /usr/bin/lesspipe %s
========================================
TimeStep      [s] = 5e-06
CourantNumber [-] = 1.88875
RunTime       [s] = 0.000475
IterationTime [s] = 0.02
ExecutionTime [h] = 0.000277778
RemainingTime [h] = 0.0201897
----------------------------------------
ContinuityEq  [-] = 0.000203825
MomentumEq    [-] = 0.000510612
EnergyEq      [-] = 0.000292383
----------------------------------------

========================================
 Iteration # 95 @ LESSOPEN=| /usr/bin/lesspipe %s
========================================
TimeStep      [s] = 5e-06
CourantNumber [-] = 1.88976
RunTime       [s] = 0.00048
IterationTime [s] = 0.01
ExecutionTime [h] = 0.000277778
RemainingTime [h] = 0.0199765
----------------------------------------
ContinuityEq  [-] = 0.000202713
MomentumEq    [-] = 0.000507161
EnergyEq      [-] = 0.000290852
----------------------------------------

========================================
 Iteration # 96 @ LESSOPEN=| /usr/bin/lesspipe %s
========================================
TimeStep      [s] = 5e-06
CourantNumber [-] = 1.89068
RunTime       [s] = 0.000485
IterationTime [s] = 0.01
ExecutionTime [h] = 0.000277778
RemainingTime [h] = 0.0197676
----------------------------------------
ContinuityEq  [-] = 0.000201483
MomentumEq    [-] = 0.000503512
EnergyEq      [-] = 0.000289199
----------------------------------------

========================================
 Iteration # 97 @ LESSOPEN=| /usr/bin/lesspipe %s
========================================
TimeStep      [s] = 5e-06
CourantNumber [-] = 1.89154
RunTime       [s] = 0.00049
IterationTime [s] = 0.02
ExecutionTime [h] = 0.000277778
RemainingTime [h] = 0.0195631
----------------------------------------
ContinuityEq  [-] = 0.000200135
MomentumEq    [-] = 0.000499791
EnergyEq      [-] = 0.000287344
----------------------------------------

========================================
 Iteration # 98 @ LESSOPEN=| /usr/bin/lesspipe %s
========================================
TimeStep      [s] = 5e-06
CourantNumber [-] = 1.89232
RunTime       [s] = 0.000495
IterationTime [s] = 0.01
ExecutionTime [h] = 0.000277778
RemainingTime [h] = 0.0193627
----------------------------------------
ContinuityEq  [-] = 0.000198796
MomentumEq    [-] = 0.000495945
EnergyEq      [-] = 0.000285391
----------------------------------------

========================================
 Iteration # 99 @ LESSOPEN=| /usr/bin/lesspipe %s
========================================
TimeStep      [s] = 5e-06
CourantNumber [-] = 1.89302
RunTime       [s] = 0.0005
IterationTime [s] = 0.01
ExecutionTime [h] = 0.000277778
RemainingTime [h] = 0.0191663
----------------------------------------
ContinuityEq  [-] = 0.000197517
MomentumEq    [-] = 0.000491934
EnergyEq      [-] = 0.000283581
----------------------------------------

========================================
 Iteration # 100 @ LESSOPEN=| /usr/bin/lesspipe %s
========================================
TimeStep      [s] = 5e-06
CourantNumber [-] = 1.89364
RunTime       [s] = 0.000505
IterationTime [s] = 0.01
ExecutionTime [h] = 0.000277778
RemainingTime [h] = 0.0189738
----------------------------------------
ContinuityEq  [-] = 0.000196286
MomentumEq    [-] = 0.000487865
EnergyEq      [-] = 0.000281788
----------------------------------------

========================================
 Iteration # 101 @ LESSOPEN=| /usr/bin/lesspipe %s
========================================
TimeStep      [s] = 5e-06
CourantNumber [-] = 1.89418
RunTime       [s] = 0.00051
IterationTime [s] = 0.01
ExecutionTime [h] = 0.000277778
RemainingTime [h] = 0.018785
----------------------------------------
ContinuityEq  [-] = 0.000195102
MomentumEq    [-] = 0.000483787
EnergyEq      [-] = 0.000280016
----------------------------------------

========================================
 Iteration # 102 @ LESSOPEN=| /usr/bin/lesspipe %s
========================================
TimeStep      [s] = 5e-06
CourantNumber [-] = 1.89462
RunTime       [s] = 0.000515
IterationTime [s] = 0.02
ExecutionTime [h] = 0.000277778
RemainingTime [h] = 0.0186
----------------------------------------
ContinuityEq  [-] = 0.000193919
MomentumEq    [-] = 0.000479842
EnergyEq      [-] = 0.000278339
----------------------------------------

========================================
 Iteration # 103 @ LESSOPEN=| /usr/bin/lesspipe %s
========================================
TimeStep      [s] = 5e-06
CourantNumber [-] = 1.89495
RunTime       [s] = 0.00052
IterationTime [s] = 0
ExecutionTime [h] = 0.000555556
RemainingTime [h] = 0.0368369
----------------------------------------
ContinuityEq  [-] = 0.000192757
MomentumEq    [-] = 0.000476389
EnergyEq      [-] = 0.000276746
----------------------------------------

========================================
 Iteration # 104 @ LESSOPEN=| /usr/bin/lesspipe %s
========================================
TimeStep      [s] = 5e-06
CourantNumber [-] = 1.89518
RunTime       [s] = 0.000525
IterationTime [s] = 0.02
ExecutionTime [h] = 0.000555556
RemainingTime [h] = 0.0364808
----------------------------------------
ContinuityEq  [-] = 0.000191642
MomentumEq    [-] = 0.00047304
EnergyEq      [-] = 0.000275322
----------------------------------------

========================================
 Iteration # 105 @ LESSOPEN=| /usr/bin/lesspipe %s
========================================
TimeStep      [s] = 5e-06
CourantNumber [-] = 1.89533
RunTime       [s] = 0.00053
IterationTime [s] = 0.01
ExecutionTime [h] = 0.000555556
RemainingTime [h] = 0.0361314
----------------------------------------
ContinuityEq  [-] = 0.000190509
MomentumEq    [-] = 0.000469702
EnergyEq      [-] = 0.000273871
----------------------------------------

========================================
 Iteration # 106 @ LESSOPEN=| /usr/bin/lesspipe %s
========================================
TimeStep      [s] = 5e-06
CourantNumber [-] = 1.89538
RunTime       [s] = 0.000535
IterationTime [s] = 0.01
ExecutionTime [h] = 0.000555556
RemainingTime [h] = 0.0357885
----------------------------------------
ContinuityEq  [-] = 0.00018934
MomentumEq    [-] = 0.000466297
EnergyEq      [-] = 0.000272306
----------------------------------------

========================================
 Iteration # 107 @ LESSOPEN=| /usr/bin/lesspipe %s
========================================
TimeStep      [s] = 5e-06
CourantNumber [-] = 1.89537
RunTime       [s] = 0.00054
IterationTime [s] = 0.01
ExecutionTime [h] = 0.000555556
RemainingTime [h] = 0.035452
----------------------------------------
ContinuityEq  [-] = 0.000188168
MomentumEq    [-] = 0.000462903
EnergyEq      [-] = 0.000270701
----------------------------------------

========================================
 Iteration # 108 @ LESSOPEN=| /usr/bin/lesspipe %s
========================================
TimeStep      [s] = 5e-06
CourantNumber [-] = 1.8953
RunTime       [s] = 0.000545
IterationTime [s] = 0.01
ExecutionTime [h] = 0.000555556
RemainingTime [h] = 0.0351216
----------------------------------------
ContinuityEq  [-] = 0.000187095
MomentumEq    [-] = 0.000459594
EnergyEq      [-] = 0.000269078
----------------------------------------

========================================
 Iteration # 109 @ LESSOPEN=| /usr/bin/lesspipe %s
========================================
TimeStep      [s] = 5e-06
CourantNumber [-] = 1.89518
RunTime       [s] = 0.00055
IterationTime [s] = 0.02
ExecutionTime [h] = 0.000555556
RemainingTime [h] = 0.0347973
----------------------------------------
ContinuityEq  [-] = 0.00018605
MomentumEq    [-] = 0.000456234
EnergyEq      [-] = 0.000267494
----------------------------------------

========================================
 Iteration # 110 @ LESSOPEN=| /usr/bin/lesspipe %s
========================================
TimeStep      [s] = 5e-06
CourantNumber [-] = 1.89504
RunTime       [s] = 0.000555
IterationTime [s] = 0
ExecutionTime [h] = 0.000555556
RemainingTime [h] = 0.0344788
----------------------------------------
ContinuityEq  [-] = 0.000184939
MomentumEq    [-] = 0.000452825
EnergyEq      [-] = 0.000265977
----------------------------------------

========================================
 Iteration # 111 @ LESSOPEN=| /usr/bin/lesspipe %s
========================================
TimeStep      [s] = 5e-06
CourantNumber [-] = 1.89487
RunTime       [s] = 0.00056
IterationTime [s] = 0.02
ExecutionTime [h] = 0.000555556
RemainingTime [h] = 0.034166
----------------------------------------
ContinuityEq  [-] = 0.000183962
MomentumEq    [-] = 0.000449427
EnergyEq      [-] = 0.000264569
----------------------------------------

========================================
 Iteration # 112 @ LESSOPEN=| /usr/bin/lesspipe %s
========================================
TimeStep      [s] = 5e-06
CourantNumber [-] = 1.89467
RunTime       [s] = 0.000565
IterationTime [s] = 0.01
ExecutionTime [h] = 0.000555556
RemainingTime [h] = 0.0338587
----------------------------------------
ContinuityEq  [-] = 0.000183027
MomentumEq    [-] = 0.000446097
EnergyEq      [-] = 0.000263265
----------------------------------------

========================================
 Iteration # 113 @ LESSOPEN=| /usr/bin/lesspipe %s
========================================
TimeStep      [s] = 5e-06
CourantNumber [-] = 1.89446
RunTime       [s] = 0.00057
IterationTime [s] = 0.01
ExecutionTime [h] = 0.000555556
RemainingTime [h] = 0.0335568
----------------------------------------
ContinuityEq  [-] = 0.00018211
MomentumEq    [-] = 0.000442718
EnergyEq      [-] = 0.000262032
----------------------------------------

========================================
 Iteration # 114 @ LESSOPEN=| /usr/bin/lesspipe %s
========================================
TimeStep      [s] = 5e-06
CourantNumber [-] = 1.89424
RunTime       [s] = 0.000575
IterationTime [s] = 0.02
ExecutionTime [h] = 0.000555556
RemainingTime [h] = 0.0332602
----------------------------------------
ContinuityEq  [-] = 0.000181186
MomentumEq    [-] = 0.000439428
EnergyEq      [-] = 0.000260732
----------------------------------------

========================================
 Iteration # 115 @ LESSOPEN=| /usr/bin/lesspipe %s
========================================
TimeStep      [s] = 5e-06
CourantNumber [-] = 1.894
RunTime       [s] = 0.00058
IterationTime [s] = 0.02
ExecutionTime [h] = 0.000555556
RemainingTime [h] = 0.0329687
----------------------------------------
ContinuityEq  [-] = 0.000180227
MomentumEq    [-] = 0.000436265
EnergyEq      [-] = 0.000259325
----------------------------------------

========================================
 Iteration # 116 @ LESSOPEN=| /usr/bin/lesspipe %s
========================================
TimeStep      [s] = 5e-06
CourantNumber [-] = 1.89377
RunTime       [s] = 0.000585
IterationTime [s] = 0.01
ExecutionTime [h] = 0.000555556
RemainingTime [h] = 0.0326822
----------------------------------------
ContinuityEq  [-] = 0.000179295
MomentumEq    [-] = 0.000433215
EnergyEq      [-] = 0.000257911
----------------------------------------

========================================
 Iteration # 117 @ LESSOPEN=| /usr/bin/lesspipe %s
========================================
TimeStep      [s] = 5e-06
CourantNumber [-] = 1.89352
RunTime       [s] = 0.00059
IterationTime [s] = 0.01
ExecutionTime [h] = 0.000555556
RemainingTime [h] = 0.0324005
----------------------------------------
ContinuityEq  [-] = 0.000178354
MomentumEq    [-] = 0.00043028
EnergyEq      [-] = 0.000256522
----------------------------------------

========================================
 Iteration # 118 @ LESSOPEN=| /usr/bin/lesspipe %s
========================================
TimeStep      [s] = 5e-06
CourantNumber [-] = 1.89328
RunTime       [s] = 0.000595
IterationTime [s] = 0.01
ExecutionTime [h] = 0.000555556
RemainingTime [h] = 0.0321235
----------------------------------------
ContinuityEq  [-] = 0.000177381
MomentumEq    [-] = 0.000427524
EnergyEq      [-] = 0.000255193
----------------------------------------

========================================
 Iteration # 119 @ LESSOPEN=| /usr/bin/lesspipe %s
========================================
TimeStep      [s] = 5e-06
CourantNumber [-] = 1.89303
RunTime       [s] = 0.0006
IterationTime [s] = 0.02
ExecutionTime [h] = 0.000555556
RemainingTime [h] = 0.0318512
----------------------------------------
ContinuityEq  [-] = 0.000176416
MomentumEq    [-] = 0.000424734
EnergyEq      [-] = 0.000253885
----------------------------------------

========================================
 Iteration # 120 @ LESSOPEN=| /usr/bin/lesspipe %s
========================================
TimeStep      [s] = 5e-06
CourantNumber [-] = 1.89278
RunTime       [s] = 0.000605
IterationTime [s] = 0.01
ExecutionTime [h] = 0.000555556
RemainingTime [h] = 0.0315834
----------------------------------------
ContinuityEq  [-] = 0.000175492
MomentumEq    [-] = 0.000421904
EnergyEq      [-] = 0.000252527
----------------------------------------

========================================
 Iteration # 121 @ LESSOPEN=| /usr/bin/lesspipe %s
========================================
TimeStep      [s] = 5e-06
CourantNumber [-] = 1.89254
RunTime       [s] = 0.00061
IterationTime [s] = 0.01
ExecutionTime [h] = 0.000555556
RemainingTime [h] = 0.03132
----------------------------------------
ContinuityEq  [-] = 0.000174549
MomentumEq    [-] = 0.000419036
EnergyEq      [-] = 0.000251248
----------------------------------------

========================================
 Iteration # 122 @ LESSOPEN=| /usr/bin/lesspipe %s
========================================
TimeStep      [s] = 5e-06
CourantNumber [-] = 1.89229
RunTime       [s] = 0.000615
IterationTime [s] = 0.01
ExecutionTime [h] = 0.000555556
RemainingTime [h] = 0.0310608
----------------------------------------
ContinuityEq  [-] = 0.000173609
MomentumEq    [-] = 0.00041611
EnergyEq      [-] = 0.00025001
----------------------------------------

========================================
 Iteration # 123 @ LESSOPEN=| /usr/bin/lesspipe %s
========================================
TimeStep      [s] = 5e-06
CourantNumber [-] = 1.89205
RunTime       [s] = 0.00062
IterationTime [s] = 0.01
ExecutionTime [h] = 0.000555556
RemainingTime [h] = 0.0308058
----------------------------------------
ContinuityEq  [-] = 0.000172721
MomentumEq    [-] = 0.000413169
EnergyEq      [-] = 0.00024879
----------------------------------------

========================================
 Iteration # 124 @ LESSOPEN=| /usr/bin/lesspipe %s
========================================
TimeStep      [s] = 5e-06
CourantNumber [-] = 1.89181
RunTime       [s] = 0.000625
IterationTime [s] = 0.02
ExecutionTime [h] = 0.000555556
RemainingTime [h] = 0.0305549
----------------------------------------
ContinuityEq  [-] = 0.000171894
MomentumEq    [-] = 0.000410232
EnergyEq      [-] = 0.00024758
----------------------------------------

========================================
 Iteration # 125 @ LESSOPEN=| /usr/bin/lesspipe %s
========================================
TimeStep      [s] = 5e-06
CourantNumber [-] = 1.89156
RunTime       [s] = 0.00063
IterationTime [s] = 0.01
ExecutionTime [h] = 0.000555556
RemainingTime [h] = 0.030308
----------------------------------------
ContinuityEq  [-] = 0.000171125
MomentumEq    [-] = 0.000407334
EnergyEq      [-] = 0.000246405
----------------------------------------

========================================
 Iteration # 126 @ LESSOPEN=| /usr/bin/lesspipe %s
========================================
TimeStep      [s] = 5e-06
CourantNumber [-] = 1.89133
RunTime       [s] = 0.000635
IterationTime [s] = 0.01
ExecutionTime [h] = 0.000555556
RemainingTime [h] = 0.030065
----------------------------------------
ContinuityEq  [-] = 0.000170449
MomentumEq    [-] = 0.000404526
EnergyEq      [-] = 0.000245311
----------------------------------------

========================================
 Iteration # 127 @ LESSOPEN=| /usr/bin/lesspipe %s
========================================
TimeStep      [s] = 5e-06
CourantNumber [-] = 1.89109
RunTime       [s] = 0.00064
IterationTime [s] = 0.02
ExecutionTime [h] = 0.000555556
RemainingTime [h] = 0.0298258
----------------------------------------
ContinuityEq  [-] = 0.00016974
MomentumEq    [-] = 0.000401849
EnergyEq      [-] = 0.000244372
----------------------------------------

========================================
 Iteration # 128 @ LESSOPEN=| /usr/bin/lesspipe %s
========================================
TimeStep      [s] = 5e-06
CourantNumber [-] = 1.89086
RunTime       [s] = 0.000645
IterationTime [s] = 0.01
ExecutionTime [h] = 0.000555556
RemainingTime [h] = 0.0295903
----------------------------------------
ContinuityEq  [-] = 0.000169059
MomentumEq    [-] = 0.000399324
EnergyEq      [-] = 0.00024346
----------------------------------------

========================================
 Iteration # 129 @ LESSOPEN=| /usr/bin/lesspipe %s
========================================
TimeStep      [s] = 5e-06
CourantNumber [-] = 1.89064
RunTime       [s] = 0.00065
IterationTime [s] = 0.01
ExecutionTime [h] = 0.000555556
RemainingTime [h] = 0.0293584
----------------------------------------
ContinuityEq  [-] = 0.000168362
MomentumEq    [-] = 0.000396981
EnergyEq      [-] = 0.000242526
----------------------------------------

========================================
 Iteration # 130 @ LESSOPEN=| /usr/bin/lesspipe %s
========================================
TimeStep      [s] = 5e-06
CourantNumber [-] = 1.89041
RunTime       [s] = 0.000655
IterationTime [s] = 0.01
ExecutionTime [h] = 0.000555556
RemainingTime [h] = 0.02913
----------------------------------------
ContinuityEq  [-] = 0.000167627
MomentumEq    [-] = 0.000394722
EnergyEq      [-] = 0.000241586
----------------------------------------

========================================
 Iteration # 131 @ LESSOPEN=| /usr/bin/lesspipe %s
========================================
TimeStep      [s] = 5e-06
CourantNumber [-] = 1.89019
RunTime       [s] = 0.00066
IterationTime [s] = 0.01
ExecutionTime [h] = 0.000555556
RemainingTime [h] = 0.0289051
----------------------------------------
ContinuityEq  [-] = 0.000166864
MomentumEq    [-] = 0.00039247
EnergyEq      [-] = 0.000240607
----------------------------------------

========================================
 Iteration # 132 @ LESSOPEN=| /usr/bin/lesspipe %s
========================================
TimeStep      [s] = 5e-06
CourantNumber [-] = 1.88998
RunTime       [s] = 0.000665
IterationTime [s] = 0.02
ExecutionTime [h] = 0.000555556
RemainingTime [h] = 0.0286836
----------------------------------------
ContinuityEq  [-] = 0.000166079
MomentumEq    [-] = 0.000390191
EnergyEq      [-] = 0.000239533
----------------------------------------

========================================
 Iteration # 133 @ LESSOPEN=| /usr/bin/lesspipe %s
========================================
TimeStep      [s] = 5e-06
CourantNumber [-] = 1.88977
RunTime       [s] = 0.00067
IterationTime [s] = 0.01
ExecutionTime [h] = 0.000555556
RemainingTime [h] = 0.0284654
----------------------------------------
ContinuityEq  [-] = 0.000165344
MomentumEq    [-] = 0.000387813
EnergyEq      [-] = 0.000238422
----------------------------------------

========================================
 Iteration # 134 @ LESSOPEN=| /usr/bin/lesspipe %s
========================================
TimeStep      [s] = 5e-06
CourantNumber [-] = 1.88957
RunTime       [s] = 0.000675
IterationTime [s] = 0.01
ExecutionTime [h] = 0.000555556
RemainingTime [h] = 0.0282505
----------------------------------------
ContinuityEq  [-] = 0.000164629
MomentumEq    [-] = 0.000385405
EnergyEq      [-] = 0.000237311
----------------------------------------

========================================
 Iteration # 135 @ LESSOPEN=| /usr/bin/lesspipe %s
========================================
TimeStep      [s] = 5e-06
CourantNumber [-] = 1.88937
RunTime       [s] = 0.00068
IterationTime [s] = 0.01
ExecutionTime [h] = 0.000555556
RemainingTime [h] = 0.0280387
----------------------------------------
ContinuityEq  [-] = 0.000163985
MomentumEq    [-] = 0.000383006
EnergyEq      [-] = 0.00023639
----------------------------------------

========================================
 Iteration # 136 @ LESSOPEN=| /usr/bin/lesspipe %s
========================================
TimeStep      [s] = 5e-06
CourantNumber [-] = 1.88919
RunTime       [s] = 0.000685
IterationTime [s] = 0.01
ExecutionTime [h] = 0.000555556
RemainingTime [h] = 0.0278299
----------------------------------------
ContinuityEq  [-] = 0.00016347
MomentumEq    [-] = 0.00038066
EnergyEq      [-] = 0.000235659
----------------------------------------

========================================
 Iteration # 137 @ LESSOPEN=| /usr/bin/lesspipe %s
========================================
TimeStep      [s] = 5e-06
CourantNumber [-] = 1.88902
RunTime       [s] = 0.00069
IterationTime [s] = 0.02
ExecutionTime [h] = 0.000555556
RemainingTime [h] = 0.0276242
----------------------------------------
ContinuityEq  [-] = 0.000163023
MomentumEq    [-] = 0.000378344
EnergyEq      [-] = 0.000235013
----------------------------------------

========================================
 Iteration # 138 @ LESSOPEN=| /usr/bin/lesspipe %s
========================================
TimeStep      [s] = 5e-06
CourantNumber [-] = 1.88886
RunTime       [s] = 0.000695
IterationTime [s] = 0.01
ExecutionTime [h] = 0.000555556
RemainingTime [h] = 0.0274215
----------------------------------------
ContinuityEq  [-] = 0.000162548
MomentumEq    [-] = 0.000376042
EnergyEq      [-] = 0.000234376
----------------------------------------

========================================
 Iteration # 139 @ LESSOPEN=| /usr/bin/lesspipe %s
========================================
TimeStep      [s] = 5e-06
CourantNumber [-] = 1.88871
RunTime       [s] = 0.0007
IterationTime [s] = 0.01
ExecutionTime [h] = 0.000555556
RemainingTime [h] = 0.0272217
----------------------------------------
ContinuityEq  [-] = 0.000162083
MomentumEq    [-] = 0.000373854
EnergyEq      [-] = 0.000233773
----------------------------------------

========================================
 Iteration # 140 @ LESSOPEN=| /usr/bin/lesspipe %s
========================================
TimeStep      [s] = 5e-06
CourantNumber [-] = 1.88858
RunTime       [s] = 0.000705
IterationTime [s] = 0.01
ExecutionTime [h] = 0.000555556
RemainingTime [h] = 0.0270247
----------------------------------------
ContinuityEq  [-] = 0.000161669
MomentumEq    [-] = 0.000371756
EnergyEq      [-] = 0.000233141
----------------------------------------

========================================
 Iteration # 141 @ LESSOPEN=| /usr/bin/lesspipe %s
========================================
TimeStep      [s] = 5e-06
CourantNumber [-] = 1.88846
RunTime       [s] = 0.00071
IterationTime [s] = 0.01
ExecutionTime [h] = 0.000555556
RemainingTime [h] = 0.0268304
----------------------------------------
ContinuityEq  [-] = 0.000161224
MomentumEq    [-] = 0.000369734
EnergyEq      [-] = 0.000232467
----------------------------------------

========================================
 Iteration # 142 @ LESSOPEN=| /usr/bin/lesspipe %s
========================================
TimeStep      [s] = 5e-06
CourantNumber [-] = 1.88835
RunTime       [s] = 0.000715
IterationTime [s] = 0.01
ExecutionTime [h] = 0.000555556
RemainingTime [h] = 0.0266389
----------------------------------------
ContinuityEq  [-] = 0.000160739
MomentumEq    [-] = 0.000367809
EnergyEq      [-] = 0.000231749
----------------------------------------

========================================
 Iteration # 143 @ LESSOPEN=| /usr/bin/lesspipe %s
========================================
TimeStep      [s] = 5e-06
CourantNumber [-] = 1.88825
RunTime       [s] = 0.00072
IterationTime [s] = 0.01
ExecutionTime [h] = 0.000555556
RemainingTime [h] = 0.0264501
----------------------------------------
ContinuityEq  [-] = 0.000160261
MomentumEq    [-] = 0.000365927
EnergyEq      [-] = 0.000230973
----------------------------------------

========================================
 Iteration # 144 @ LESSOPEN=| /usr/bin/lesspipe %s
========================================
TimeStep      [s] = 5e-06
CourantNumber [-] = 1.88815
RunTime       [s] = 0.000725
IterationTime [s] = 0.02
ExecutionTime [h] = 0.000555556
RemainingTime [h] = 0.0262638
----------------------------------------
ContinuityEq  [-] = 0.000159746
MomentumEq    [-] = 0.000364027
EnergyEq      [-] = 0.000230197
----------------------------------------

========================================
 Iteration # 145 @ LESSOPEN=| /usr/bin/lesspipe %s
========================================
TimeStep      [s] = 5e-06
CourantNumber [-] = 1.88806
RunTime       [s] = 0.00073
IterationTime [s] = 0.01
ExecutionTime [h] = 0.000555556
RemainingTime [h] = 0.0260801
----------------------------------------
ContinuityEq  [-] = 0.000159193
MomentumEq    [-] = 0.00036204
EnergyEq      [-] = 0.000229349
----------------------------------------

========================================
 Iteration # 146 @ LESSOPEN=| /usr/bin/lesspipe %s
========================================
TimeStep      [s] = 5e-06
CourantNumber [-] = 1.88798
RunTime       [s] = 0.000735
IterationTime [s] = 0.01
ExecutionTime [h] = 0.000555556
RemainingTime [h] = 0.025899
----------------------------------------
ContinuityEq  [-] = 0.000158612
MomentumEq    [-] = 0.00035997
EnergyEq      [-] = 0.000228426
----------------------------------------

========================================
 Iteration # 147 @ LESSOPEN=| /usr/bin/lesspipe %s
========================================
TimeStep      [s] = 5e-06
CourantNumber [-] = 1.8879
RunTime       [s] = 0.00074
IterationTime [s] = 0.01
ExecutionTime [h] = 0.000555556
RemainingTime [h] = 0.0257202
----------------------------------------
ContinuityEq  [-] = 0.000157973
MomentumEq    [-] = 0.00035784
EnergyEq      [-] = 0.000227556
----------------------------------------

========================================
 Iteration # 148 @ LESSOPEN=| /usr/bin/lesspipe %s
========================================
TimeStep      [s] = 5e-06
CourantNumber [-] = 1.88782
RunTime       [s] = 0.000745
IterationTime [s] = 0.01
ExecutionTime [h] = 0.000555556
RemainingTime [h] = 0.0255439
----------------------------------------
ContinuityEq  [-] = 0.000157348
MomentumEq    [-] = 0.000355712
EnergyEq      [-] = 0.000226651
----------------------------------------

========================================
 Iteration # 149 @ LESSOPEN=| /usr/bin/lesspipe %s
========================================
TimeStep      [s] = 5e-06
CourantNumber [-] = 1.88773
RunTime       [s] = 0.00075
IterationTime [s] = 0.02
ExecutionTime [h] = 0.000555556
RemainingTime [h] = 0.0253699
----------------------------------------
ContinuityEq  [-] = 0.000156751
MomentumEq    [-] = 0.000353618
EnergyEq      [-] = 0.000225719
----------------------------------------

========================================
 Iteration # 150 @ LESSOPEN=| /usr/bin/lesspipe %s
========================================
TimeStep      [s] = 5e-06
CourantNumber [-] = 1.88764
RunTime       [s] = 0.000755
IterationTime [s] = 0.01
ExecutionTime [h] = 0.000555556
RemainingTime [h] = 0.0251982
----------------------------------------
ContinuityEq  [-] = 0.00015621
MomentumEq    [-] = 0.000351498
EnergyEq      [-] = 0.000224793
----------------------------------------

========================================
 Iteration # 151 @ LESSOPEN=| /usr/bin/lesspipe %s
========================================
TimeStep      [s] = 5e-06
CourantNumber [-] = 1.88755
RunTime       [s] = 0.00076
IterationTime [s] = 0.01
ExecutionTime [h] = 0.000555556
RemainingTime [h] = 0.0250287
----------------------------------------
ContinuityEq  [-] = 0.000155696
MomentumEq    [-] = 0.000349386
EnergyEq      [-] = 0.00022395
----------------------------------------

========================================
 Iteration # 152 @ LESSOPEN=| /usr/bin/lesspipe %s
========================================
TimeStep      [s] = 5e-06
CourantNumber [-] = 1.88746
RunTime       [s] = 0.000765
IterationTime [s] = 0.01
ExecutionTime [h] = 0.000555556
RemainingTime [h] = 0.0248615
----------------------------------------
ContinuityEq  [-] = 0.000155196
MomentumEq    [-] = 0.000347271
EnergyEq      [-] = 0.000223199
----------------------------------------

========================================
 Iteration # 153 @ LESSOPEN=| /usr/bin/lesspipe %s
========================================
TimeStep      [s] = 5e-06
CourantNumber [-] = 1.88736
RunTime       [s] = 0.00077
IterationTime [s] = 0.01
ExecutionTime [h] = 0.000555556
RemainingTime [h] = 0.0246965
----------------------------------------
ContinuityEq  [-] = 0.000154684
MomentumEq    [-] = 0.00034517
EnergyEq      [-] = 0.000222456
----------------------------------------

========================================
 Iteration # 154 @ LESSOPEN=| /usr/bin/lesspipe %s
========================================
TimeStep      [s] = 5e-06
CourantNumber [-] = 1.88727
RunTime       [s] = 0.000775
IterationTime [s] = 0.01
ExecutionTime [h] = 0.000555556
RemainingTime [h] = 0.0245336
----------------------------------------
ContinuityEq  [-] = 0.000154138
MomentumEq    [-] = 0.000343039
EnergyEq      [-] = 0.00022167
----------------------------------------

========================================
 Iteration # 155 @ LESSOPEN=| /usr/bin/lesspipe %s
========================================
TimeStep      [s] = 5e-06
CourantNumber [-] = 1.88717
RunTime       [s] = 0.00078
IterationTime [s] = 0.01
ExecutionTime [h] = 0.000555556
RemainingTime [h] = 0.0243727
----------------------------------------
ContinuityEq  [-] = 0.000153556
MomentumEq    [-] = 0.000340949
EnergyEq      [-] = 0.000220895
----------------------------------------

========================================
 Iteration # 156 @ LESSOPEN=| /usr/bin/lesspipe %s
========================================
TimeStep      [s] = 5e-06
CourantNumber [-] = 1.88707
RunTime       [s] = 0.000785
IterationTime [s] = 0.02
ExecutionTime [h] = 0.000555556
RemainingTime [h] = 0.024214
----------------------------------------
ContinuityEq  [-] = 0.000152996
MomentumEq    [-] = 0.000338899
EnergyEq      [-] = 0.000220084
----------------------------------------

========================================
 Iteration # 157 @ LESSOPEN=| /usr/bin/lesspipe %s
========================================
TimeStep      [s] = 5e-06
CourantNumber [-] = 1.88698
RunTime       [s] = 0.00079
IterationTime [s] = 0.01
ExecutionTime [h] = 0.000555556
RemainingTime [h] = 0.0240572
----------------------------------------
ContinuityEq  [-] = 0.000152457
MomentumEq    [-] = 0.000336911
EnergyEq      [-] = 0.000219309
----------------------------------------

========================================
 Iteration # 158 @ LESSOPEN=| /usr/bin/lesspipe %s
========================================
TimeStep      [s] = 5e-06
CourantNumber [-] = 1.88688
RunTime       [s] = 0.000795
IterationTime [s] = 0.01
ExecutionTime [h] = 0.000555556
RemainingTime [h] = 0.0239024
----------------------------------------
ContinuityEq  [-] = 0.000151964
MomentumEq    [-] = 0.000334949
EnergyEq      [-] = 0.000218605
----------------------------------------

========================================
 Iteration # 159 @ LESSOPEN=| /usr/bin/lesspipe %s
========================================
TimeStep      [s] = 5e-06
CourantNumber [-] = 1.8868
RunTime       [s] = 0.0008
IterationTime [s] = 0.01
ExecutionTime [h] = 0.000555556
RemainingTime [h] = 0.0237495
----------------------------------------
ContinuityEq  [-] = 0.000151561
MomentumEq    [-] = 0.000333027
EnergyEq      [-] = 0.000218008
----------------------------------------

========================================
 Iteration # 160 @ LESSOPEN=| /usr/bin/lesspipe %s
========================================
TimeStep      [s] = 5e-06
CourantNumber [-] = 1.88672
RunTime       [s] = 0.000805
IterationTime [s] = 0.01
ExecutionTime [h] = 0.000555556
RemainingTime [h] = 0.0235986
[...]
----------------------------------------
ContinuityEq  [-] = 1.67744e-06
MomentumEq    [-] = 1.96096e-06
EnergyEq      [-] = 4.9088e-07
----------------------------------------

========================================
 Iteration # 6959 @ LESSOPEN=| /usr/bin/lesspipe %s
========================================
TimeStep      [s] = 5e-06
CourantNumber [-] = 1.91759
RunTime       [s] = 0.0348
IterationTime [s] = 0.01
ExecutionTime [h] = 0.0213889
RemainingTime [h] = 0.000122922
----------------------------------------
ContinuityEq  [-] = 1.68646e-06
MomentumEq    [-] = 1.96916e-06
EnergyEq      [-] = 4.91756e-07
----------------------------------------

========================================
 Iteration # 6960 @ LESSOPEN=| /usr/bin/lesspipe %s
========================================
TimeStep      [s] = 5e-06
CourantNumber [-] = 1.91759
RunTime       [s] = 0.034805
IterationTime [s] = 0.01
ExecutionTime [h] = 0.0213889
RemainingTime [h] = 0.000119832
----------------------------------------
ContinuityEq  [-] = 1.70411e-06
MomentumEq    [-] = 1.98686e-06
EnergyEq      [-] = 4.93219e-07
----------------------------------------

========================================
 Iteration # 6961 @ LESSOPEN=| /usr/bin/lesspipe %s
========================================
TimeStep      [s] = 5e-06
CourantNumber [-] = 1.91759
RunTime       [s] = 0.03481
IterationTime [s] = 0.02
ExecutionTime [h] = 0.0213889
RemainingTime [h] = 0.000116743
----------------------------------------
ContinuityEq  [-] = 1.7116e-06
MomentumEq    [-] = 1.99502e-06
EnergyEq      [-] = 4.93718e-07
----------------------------------------

========================================
 Iteration # 6962 @ LESSOPEN=| /usr/bin/lesspipe %s
========================================
TimeStep      [s] = 5e-06
CourantNumber [-] = 1.91759
RunTime       [s] = 0.034815
IterationTime [s] = 0.01
ExecutionTime [h] = 0.0213889
RemainingTime [h] = 0.000113654
----------------------------------------
ContinuityEq  [-] = 1.69762e-06
MomentumEq    [-] = 1.97989e-06
EnergyEq      [-] = 4.92015e-07
----------------------------------------

========================================
 Iteration # 6963 @ LESSOPEN=| /usr/bin/lesspipe %s
========================================
TimeStep      [s] = 5e-06
CourantNumber [-] = 1.91759
RunTime       [s] = 0.03482
IterationTime [s] = 0.01
ExecutionTime [h] = 0.0213889
RemainingTime [h] = 0.000110566
----------------------------------------
ContinuityEq  [-] = 1.68724e-06
MomentumEq    [-] = 1.97012e-06
EnergyEq      [-] = 4.90834e-07
----------------------------------------

========================================
 Iteration # 6964 @ LESSOPEN=| /usr/bin/lesspipe %s
========================================
TimeStep      [s] = 5e-06
CourantNumber [-] = 1.91759
RunTime       [s] = 0.034825
IterationTime [s] = 0.01
ExecutionTime [h] = 0.0213889
RemainingTime [h] = 0.00010748
----------------------------------------
ContinuityEq  [-] = 1.68438e-06
MomentumEq    [-] = 1.96783e-06
EnergyEq      [-] = 4.90486e-07
----------------------------------------

========================================
 Iteration # 6965 @ LESSOPEN=| /usr/bin/lesspipe %s
========================================
TimeStep      [s] = 5e-06
CourantNumber [-] = 1.91759
RunTime       [s] = 0.03483
IterationTime [s] = 0.01
ExecutionTime [h] = 0.0213889
RemainingTime [h] = 0.000104394
----------------------------------------
ContinuityEq  [-] = 1.68839e-06
MomentumEq    [-] = 1.97179e-06
EnergyEq      [-] = 4.90696e-07
----------------------------------------

========================================
 Iteration # 6966 @ LESSOPEN=| /usr/bin/lesspipe %s
========================================
TimeStep      [s] = 5e-06
CourantNumber [-] = 1.91759
RunTime       [s] = 0.034835
IterationTime [s] = 0.01
ExecutionTime [h] = 0.0213889
RemainingTime [h] = 0.000101309
----------------------------------------
ContinuityEq  [-] = 1.68871e-06
MomentumEq    [-] = 1.97292e-06
EnergyEq      [-] = 4.90175e-07
----------------------------------------

========================================
 Iteration # 6967 @ LESSOPEN=| /usr/bin/lesspipe %s
========================================
TimeStep      [s] = 5e-06
CourantNumber [-] = 1.91759
RunTime       [s] = 0.03484
IterationTime [s] = 0.01
ExecutionTime [h] = 0.0213889
RemainingTime [h] = 9.82249e-05
----------------------------------------
ContinuityEq  [-] = 1.68501e-06
MomentumEq    [-] = 1.9692e-06
EnergyEq      [-] = 4.89513e-07
----------------------------------------

========================================
 Iteration # 6968 @ LESSOPEN=| /usr/bin/lesspipe %s
========================================
TimeStep      [s] = 5e-06
CourantNumber [-] = 1.91759
RunTime       [s] = 0.034845
IterationTime [s] = 0.01
ExecutionTime [h] = 0.0213889
RemainingTime [h] = 9.51417e-05
----------------------------------------
ContinuityEq  [-] = 1.68169e-06
MomentumEq    [-] = 1.96603e-06
EnergyEq      [-] = 4.88987e-07
----------------------------------------

========================================
 Iteration # 6969 @ LESSOPEN=| /usr/bin/lesspipe %s
========================================
TimeStep      [s] = 5e-06
CourantNumber [-] = 1.91759
RunTime       [s] = 0.03485
IterationTime [s] = 0.01
ExecutionTime [h] = 0.0213889
RemainingTime [h] = 9.20594e-05
----------------------------------------
ContinuityEq  [-] = 1.68785e-06
MomentumEq    [-] = 1.97282e-06
EnergyEq      [-] = 4.89478e-07
----------------------------------------

========================================
 Iteration # 6970 @ LESSOPEN=| /usr/bin/lesspipe %s
========================================
TimeStep      [s] = 5e-06
CourantNumber [-] = 1.91759
RunTime       [s] = 0.034855
IterationTime [s] = 0.01
ExecutionTime [h] = 0.0216667
RemainingTime [h] = 9.01335e-05
----------------------------------------
ContinuityEq  [-] = 1.69149e-06
MomentumEq    [-] = 1.97682e-06
EnergyEq      [-] = 4.89417e-07
----------------------------------------

========================================
 Iteration # 6971 @ LESSOPEN=| /usr/bin/lesspipe %s
========================================
TimeStep      [s] = 5e-06
CourantNumber [-] = 1.91759
RunTime       [s] = 0.03486
IterationTime [s] = 0.01
ExecutionTime [h] = 0.0216667
RemainingTime [h] = 8.7013e-05
----------------------------------------
ContinuityEq  [-] = 1.68921e-06
MomentumEq    [-] = 1.97425e-06
EnergyEq      [-] = 4.88765e-07
----------------------------------------

========================================
 Iteration # 6972 @ LESSOPEN=| /usr/bin/lesspipe %s
========================================
TimeStep      [s] = 5e-06
CourantNumber [-] = 1.91759
RunTime       [s] = 0.034865
IterationTime [s] = 0.01
ExecutionTime [h] = 0.0216667
RemainingTime [h] = 8.38933e-05
----------------------------------------
ContinuityEq  [-] = 1.69051e-06
MomentumEq    [-] = 1.97386e-06
EnergyEq      [-] = 4.88594e-07
----------------------------------------

========================================
 Iteration # 6973 @ LESSOPEN=| /usr/bin/lesspipe %s
========================================
TimeStep      [s] = 5e-06
CourantNumber [-] = 1.91759
RunTime       [s] = 0.03487
IterationTime [s] = 0.01
ExecutionTime [h] = 0.0216667
RemainingTime [h] = 8.07746e-05
----------------------------------------
ContinuityEq  [-] = 1.69112e-06
MomentumEq    [-] = 1.97429e-06
EnergyEq      [-] = 4.88342e-07
----------------------------------------

========================================
 Iteration # 6974 @ LESSOPEN=| /usr/bin/lesspipe %s
========================================
TimeStep      [s] = 5e-06
CourantNumber [-] = 1.91759
RunTime       [s] = 0.034875
IterationTime [s] = 0.01
ExecutionTime [h] = 0.0216667
RemainingTime [h] = 7.76568e-05
----------------------------------------
ContinuityEq  [-] = 1.69326e-06
MomentumEq    [-] = 1.97736e-06
EnergyEq      [-] = 4.88331e-07
----------------------------------------

========================================
 Iteration # 6975 @ LESSOPEN=| /usr/bin/lesspipe %s
========================================
TimeStep      [s] = 5e-06
CourantNumber [-] = 1.91759
RunTime       [s] = 0.03488
IterationTime [s] = 0.01
ExecutionTime [h] = 0.0216667
RemainingTime [h] = 7.45398e-05
----------------------------------------
ContinuityEq  [-] = 1.6963e-06
MomentumEq    [-] = 1.97989e-06
EnergyEq      [-] = 4.88294e-07
----------------------------------------

========================================
 Iteration # 6976 @ LESSOPEN=| /usr/bin/lesspipe %s
========================================
TimeStep      [s] = 5e-06
CourantNumber [-] = 1.91759
RunTime       [s] = 0.034885
IterationTime [s] = 0.02
ExecutionTime [h] = 0.0216667
RemainingTime [h] = 7.14237e-05
----------------------------------------
ContinuityEq  [-] = 1.68865e-06
MomentumEq    [-] = 1.97227e-06
EnergyEq      [-] = 4.87212e-07
----------------------------------------

========================================
 Iteration # 6977 @ LESSOPEN=| /usr/bin/lesspipe %s
========================================
TimeStep      [s] = 5e-06
CourantNumber [-] = 1.91759
RunTime       [s] = 0.03489
IterationTime [s] = 0
ExecutionTime [h] = 0.0216667
RemainingTime [h] = 6.83086e-05
----------------------------------------
ContinuityEq  [-] = 1.67728e-06
MomentumEq    [-] = 1.9594e-06
EnergyEq      [-] = 4.85713e-07
----------------------------------------

========================================
 Iteration # 6978 @ LESSOPEN=| /usr/bin/lesspipe %s
========================================
TimeStep      [s] = 5e-06
CourantNumber [-] = 1.91759
RunTime       [s] = 0.034895
IterationTime [s] = 0.02
ExecutionTime [h] = 0.0216667
RemainingTime [h] = 6.51943e-05
----------------------------------------
ContinuityEq  [-] = 1.67899e-06
MomentumEq    [-] = 1.96098e-06
EnergyEq      [-] = 4.85593e-07
----------------------------------------

========================================
 Iteration # 6979 @ LESSOPEN=| /usr/bin/lesspipe %s
========================================
TimeStep      [s] = 5e-06
CourantNumber [-] = 1.91759
RunTime       [s] = 0.0349
IterationTime [s] = 0.01
ExecutionTime [h] = 0.0216667
RemainingTime [h] = 6.20809e-05
----------------------------------------
ContinuityEq  [-] = 1.68409e-06
MomentumEq    [-] = 1.96531e-06
EnergyEq      [-] = 4.85713e-07
----------------------------------------

========================================
 Iteration # 6980 @ LESSOPEN=| /usr/bin/lesspipe %s
========================================
TimeStep      [s] = 5e-06
CourantNumber [-] = 1.91759
RunTime       [s] = 0.034905
IterationTime [s] = 0.01
ExecutionTime [h] = 0.0216667
RemainingTime [h] = 5.89684e-05
----------------------------------------
ContinuityEq  [-] = 1.67265e-06
MomentumEq    [-] = 1.95316e-06
EnergyEq      [-] = 4.84303e-07
----------------------------------------

========================================
 Iteration # 6981 @ LESSOPEN=| /usr/bin/lesspipe %s
========================================
TimeStep      [s] = 5e-06
CourantNumber [-] = 1.91759
RunTime       [s] = 0.03491
IterationTime [s] = 0.01
ExecutionTime [h] = 0.0216667
RemainingTime [h] = 5.58568e-05
----------------------------------------
ContinuityEq  [-] = 1.66589e-06
MomentumEq    [-] = 1.94631e-06
EnergyEq      [-] = 4.8299e-07
----------------------------------------

========================================
 Iteration # 6982 @ LESSOPEN=| /usr/bin/lesspipe %s
========================================
TimeStep      [s] = 5e-06
CourantNumber [-] = 1.91759
RunTime       [s] = 0.034915
IterationTime [s] = 0.01
ExecutionTime [h] = 0.0216667
RemainingTime [h] = 5.27461e-05
----------------------------------------
ContinuityEq  [-] = 1.67677e-06
MomentumEq    [-] = 1.9581e-06
EnergyEq      [-] = 4.83414e-07
----------------------------------------

========================================
 Iteration # 6983 @ LESSOPEN=| /usr/bin/lesspipe %s
========================================
TimeStep      [s] = 5e-06
CourantNumber [-] = 1.91759
RunTime       [s] = 0.03492
IterationTime [s] = 0.01
ExecutionTime [h] = 0.0216667
RemainingTime [h] = 4.96363e-05
----------------------------------------
ContinuityEq  [-] = 1.68326e-06
MomentumEq    [-] = 1.96474e-06
EnergyEq      [-] = 4.83425e-07
----------------------------------------

========================================
 Iteration # 6984 @ LESSOPEN=| /usr/bin/lesspipe %s
========================================
TimeStep      [s] = 5e-06
CourantNumber [-] = 1.91759
RunTime       [s] = 0.034925
IterationTime [s] = 0.01
ExecutionTime [h] = 0.0216667
RemainingTime [h] = 4.65273e-05
----------------------------------------
ContinuityEq  [-] = 1.68299e-06
MomentumEq    [-] = 1.96543e-06
EnergyEq      [-] = 4.83009e-07
----------------------------------------

========================================
 Iteration # 6985 @ LESSOPEN=| /usr/bin/lesspipe %s
========================================
TimeStep      [s] = 5e-06
CourantNumber [-] = 1.91759
RunTime       [s] = 0.03493
IterationTime [s] = 0.01
ExecutionTime [h] = 0.0216667
RemainingTime [h] = 4.34193e-05
----------------------------------------
ContinuityEq  [-] = 1.67859e-06
MomentumEq    [-] = 1.96158e-06
EnergyEq      [-] = 4.82154e-07
----------------------------------------

========================================
 Iteration # 6986 @ LESSOPEN=| /usr/bin/lesspipe %s
========================================
TimeStep      [s] = 5e-06
CourantNumber [-] = 1.91758
RunTime       [s] = 0.034935
IterationTime [s] = 0.01
ExecutionTime [h] = 0.0216667
RemainingTime [h] = 4.03122e-05
----------------------------------------
ContinuityEq  [-] = 1.6775e-06
MomentumEq    [-] = 1.95968e-06
EnergyEq      [-] = 4.81408e-07
----------------------------------------

========================================
 Iteration # 6987 @ LESSOPEN=| /usr/bin/lesspipe %s
========================================
TimeStep      [s] = 5e-06
CourantNumber [-] = 1.91758
RunTime       [s] = 0.03494
IterationTime [s] = 0.01
ExecutionTime [h] = 0.0216667
RemainingTime [h] = 3.72059e-05
----------------------------------------
ContinuityEq  [-] = 1.67607e-06
MomentumEq    [-] = 1.95773e-06
EnergyEq      [-] = 4.80846e-07
----------------------------------------

========================================
 Iteration # 6988 @ LESSOPEN=| /usr/bin/lesspipe %s
========================================
TimeStep      [s] = 5e-06
CourantNumber [-] = 1.91758
RunTime       [s] = 0.034945
IterationTime [s] = 0.01
ExecutionTime [h] = 0.0216667
RemainingTime [h] = 3.41005e-05
----------------------------------------
ContinuityEq  [-] = 1.68807e-06
MomentumEq    [-] = 1.96899e-06
EnergyEq      [-] = 4.81566e-07
----------------------------------------

========================================
 Iteration # 6989 @ LESSOPEN=| /usr/bin/lesspipe %s
========================================
TimeStep      [s] = 5e-06
CourantNumber [-] = 1.91758
RunTime       [s] = 0.03495
IterationTime [s] = 0.01
ExecutionTime [h] = 0.0216667
RemainingTime [h] = 3.0996e-05
----------------------------------------
ContinuityEq  [-] = 1.69811e-06
MomentumEq    [-] = 1.9783e-06
EnergyEq      [-] = 4.82016e-07
----------------------------------------

========================================
 Iteration # 6990 @ LESSOPEN=| /usr/bin/lesspipe %s
========================================
TimeStep      [s] = 5e-06
CourantNumber [-] = 1.91758
RunTime       [s] = 0.034955
IterationTime [s] = 0.01
ExecutionTime [h] = 0.0216667
RemainingTime [h] = 2.78924e-05
----------------------------------------
ContinuityEq  [-] = 1.69416e-06
MomentumEq    [-] = 1.97321e-06
EnergyEq      [-] = 4.81199e-07
----------------------------------------

========================================
 Iteration # 6991 @ LESSOPEN=| /usr/bin/lesspipe %s
========================================
TimeStep      [s] = 5e-06
CourantNumber [-] = 1.91758
RunTime       [s] = 0.03496
IterationTime [s] = 0.01
ExecutionTime [h] = 0.0216667
RemainingTime [h] = 2.47897e-05
----------------------------------------
ContinuityEq  [-] = 1.68534e-06
MomentumEq    [-] = 1.9646e-06
EnergyEq      [-] = 4.79853e-07
----------------------------------------

========================================
 Iteration # 6992 @ LESSOPEN=| /usr/bin/lesspipe %s
========================================
TimeStep      [s] = 5e-06
CourantNumber [-] = 1.91758
RunTime       [s] = 0.034965
IterationTime [s] = 0.01
ExecutionTime [h] = 0.0216667
RemainingTime [h] = 2.16879e-05
----------------------------------------
ContinuityEq  [-] = 1.68681e-06
MomentumEq    [-] = 1.96625e-06
EnergyEq      [-] = 4.79591e-07
----------------------------------------

========================================
 Iteration # 6993 @ LESSOPEN=| /usr/bin/lesspipe %s
========================================
TimeStep      [s] = 5e-06
CourantNumber [-] = 1.91758
RunTime       [s] = 0.03497
IterationTime [s] = 0.01
ExecutionTime [h] = 0.0216667
RemainingTime [h] = 1.8587e-05
----------------------------------------
ContinuityEq  [-] = 1.68056e-06
MomentumEq    [-] = 1.95973e-06
EnergyEq      [-] = 4.78515e-07
----------------------------------------

========================================
 Iteration # 6994 @ LESSOPEN=| /usr/bin/lesspipe %s
========================================
TimeStep      [s] = 5e-06
CourantNumber [-] = 1.91758
RunTime       [s] = 0.034975
IterationTime [s] = 0.01
ExecutionTime [h] = 0.0216667
RemainingTime [h] = 1.54869e-05
----------------------------------------
ContinuityEq  [-] = 1.6735e-06
MomentumEq    [-] = 1.9518e-06
EnergyEq      [-] = 4.77308e-07
----------------------------------------

========================================
 Iteration # 6995 @ LESSOPEN=| /usr/bin/lesspipe %s
========================================
TimeStep      [s] = 5e-06
CourantNumber [-] = 1.91758
RunTime       [s] = 0.03498
IterationTime [s] = 0.01
ExecutionTime [h] = 0.0216667
RemainingTime [h] = 1.23878e-05
----------------------------------------
ContinuityEq  [-] = 1.69433e-06
MomentumEq    [-] = 1.97168e-06
EnergyEq      [-] = 4.78674e-07
----------------------------------------

========================================
 Iteration # 6996 @ LESSOPEN=| /usr/bin/lesspipe %s
========================================
TimeStep      [s] = 5e-06
CourantNumber [-] = 1.91758
RunTime       [s] = 0.034985
IterationTime [s] = 0.01
ExecutionTime [h] = 0.0216667
RemainingTime [h] = 9.28951e-06
----------------------------------------
ContinuityEq  [-] = 1.71191e-06
MomentumEq    [-] = 1.98798e-06
EnergyEq      [-] = 4.79888e-07
----------------------------------------

========================================
 Iteration # 6997 @ LESSOPEN=| /usr/bin/lesspipe %s
========================================
TimeStep      [s] = 5e-06
CourantNumber [-] = 1.91758
RunTime       [s] = 0.03499
IterationTime [s] = 0.02
ExecutionTime [h] = 0.0216667
RemainingTime [h] = 6.19212e-06
----------------------------------------
ContinuityEq  [-] = 1.71546e-06
MomentumEq    [-] = 1.99071e-06
EnergyEq      [-] = 4.79568e-07
----------------------------------------

========================================
 Iteration # 6998 @ LESSOPEN=| /usr/bin/lesspipe %s
========================================
TimeStep      [s] = 5e-06
CourantNumber [-] = 1.91758
RunTime       [s] = 0.034995
IterationTime [s] = 0
ExecutionTime [h] = 0.0216667
RemainingTime [h] = 3.09562e-06
----------------------------------------
ContinuityEq  [-] = 1.70262e-06
MomentumEq    [-] = 1.97703e-06
EnergyEq      [-] = 4.77916e-07
----------------------------------------

========================================
 Iteration # 6999 @ LESSOPEN=| /usr/bin/lesspipe %s
========================================
TimeStep      [s] = 5e-06
CourantNumber [-] = 1.91757
RunTime       [s] = 0.035
IterationTime [s] = 0.09
ExecutionTime [h] = 0.0216667
RemainingTime [h] = -1.71817e-15
----------------------------------------
ContinuityEq  [-] = 1.69122e-06
MomentumEq    [-] = 1.96503e-06
EnergyEq      [-] = 4.76487e-07
----------------------------------------
AeroFoam terminated succesfully!
Tue Jul  4 23:55:03 CST 2017
